2000014
     RDKit          2D

 13 13  0  0  0  0  0  0  0  0999 V2000
    6.4000   -4.8417    0.0000 C   0  0  0  0  0  0  0  0  0  0  0  0
    5.6792   -4.4167    0.0000 C   0  0  0  0  0  0  0  0  0  0  0  0
    5.6792   -3.5917    0.0000 C   0  0  0  0  0  0  0  0  0  0  0  0
    6.3917   -5.6667    0.0000 O   0  0  0  0  0  0  0  0  0  0  0  0
    4.9625   -2.3542    0.0000 N   0  0  0  0  0  0  0  0  0  0  0  0
    4.9625   -3.1792    0.0000 C   0  0  0  0  0  0  0  0  0  0  0  0
    7.1125   -4.4292    0.0000 O   0  0  0  0  0  0  0  0  0  0  0  0
    5.6750   -1.9417    0.0000 N   0  0  0  0  0  0  0  0  0  0  0  0
    4.9625   -4.8292    0.0000 C   0  0  0  0  0  0  0  0  0  0  0  0
    4.2500   -4.4167    0.0000 C   0  0  0  0  0  0  0  0  0  0  0  0
    4.2500   -3.6000    0.0000 C   0  0  0  0  0  0  0  0  0  0  0  0
    7.1125   -3.6000    0.0000 C   0  0  0  0  0  0  0  0  0  0  0  0
    7.8250   -3.1875    0.0000 C   0  0  0  0  0  0  0  0  0  0  0  0
  2  1  1  0
  3  2  2  0
  4  1  2  0
  5  6  1  0
  6  3  1  0
  7  1  1  0
  8  5  1  0
  9  2  1  0
 10  9  2  0
 11 10  1  0
 12  7  1  0
 13 12  1  0
  6 11  2  0
M  END
>  <ID>  (1) 
2000014

>  <RB>  (1) 
4

>  <clogP>  (1) 
2.314000000000000e+000

>  <Supplier>  (1) 
ChemBridge

>  <tPSA>  (1) 
6.434999999999999e+001

>  <Hacc>  (1) 
2

>  <Hdon>  (1) 
2

>  <Name>  (1) 
ethyl 3-hydrazinobenzoate hydrochloride

>  <logSw>  (1) 
-2.492000000000000e+000

>  <Library>  (1) 
ExpressPick

$$$$
3000351
     RDKit          2D

 11 12  0  0  0  0  0  0  0  0999 V2000
    1.1667    2.2208    0.0000 N   0  0  0  0  0  0  0  0  0  0  0  0
    2.2875    0.6708    0.0000 C   0  0  0  0  0  0  0  0  0  0  0  0
   -0.6500   -0.2542    0.0000 C   0  0  0  0  0  0  0  0  0  0  0  0
    1.1542   -0.8667    0.0000 S   0  0  0  0  0  0  0  0  0  0  0  0
   -0.6458    1.6125    0.0000 C   0  0  0  0  0  0  0  0  0  0  0  0
   -2.3125   -1.2167    0.0000 C   0  0  0  0  0  0  0  0  0  0  0  0
   -2.3000    2.5833    0.0000 C   0  0  0  0  0  0  0  0  0  0  0  0
    4.1875    0.6708    0.0000 N   0  0  0  0  0  0  0  0  0  0  0  0
   -3.9625    1.6333    0.0000 C   0  0  0  0  0  0  0  0  0  0  0  0
   -3.9708   -0.2500    0.0000 C   0  0  0  0  0  0  0  0  0  0  0  0
   -5.6583   -1.1667    0.0000 C   0  0  0  0  0  0  0  0  0  0  0  0
  2  1  2  0
  3  5  2  0
  4  2  1  0
  5  1  1  0
  6  3  1  0
  7  5  1  0
  8  2  1  0
  9  7  1  0
 10  9  1  0
 11 10  1  0
  3  4  1  0
  6 10  1  0
M  END
>  <ID>  (2) 
3000351

>  <RB>  (2) 
0

>  <clogP>  (2) 
2.320000000000000e+000

>  <Supplier>  (2) 
ChemBridge

>  <tPSA>  (2) 
3.891000000000000e+001

>  <Hacc>  (2) 
1

>  <Hdon>  (2) 
1

>  <Name>  (2) 
6-methyl-4,5,6,7-tetrahydro-1,3-benzothiazol-2-amine

>  <logSw>  (2) 
-3.169000000000000e+000

>  <Scheme>  (2) 
226

>  <Library>  (2) 
ExpressPick

>  <stereochemistry>  (2) 
unknown

$$$$
3002026
     RDKit          2D

 11 11  0  0  0  0  0  0  0  0999 V2000
    0.0917   -0.4917    0.0000 C   0  0  0  0  0  0  0  0  0  0  0  0
   -1.2208   -1.4500    0.0000 N   0  0  0  0  0  0  0  0  0  0  0  0
    0.6792    0.3208    0.0000 C   0  0  0  0  0  0  0  0  0  0  0  0
   -0.9083   -0.4917    0.0000 C   0  0  0  0  0  0  0  0  0  0  0  0
   -0.4083   -2.0292    0.0000 N   0  0  0  0  0  0  0  0  0  0  0  0
    0.4000   -1.4500    0.0000 C   0  0  0  0  0  0  0  0  0  0  0  0
    0.2667    1.2333    0.0000 O   0  0  0  0  0  0  0  0  0  0  0  0
    1.6667    0.2125    0.0000 O   0  0  0  0  0  0  0  0  0  0  0  0
   -1.4958    0.3208    0.0000 C   0  0  0  0  0  0  0  0  0  0  0  0
   -1.0875    1.2333    0.0000 C   0  0  0  0  0  0  0  0  0  0  0  0
   -1.6750    2.0375    0.0000 C   0  0  0  0  0  0  0  0  0  0  0  0
  2  4  2  0
  3  1  1  0
  4  1  1  0
  5  6  1  0
  6  1  2  0
  7  3  2  0
  8  3  1  0
  9  4  1  0
 10  9  1  0
 11 10  1  0
  5  2  1  0
M  END
>  <ID>  (3) 
3002026

>  <RB>  (3) 
3

>  <clogP>  (3) 
9.650000000000002e-001

>  <Supplier>  (3) 
ChemBridge

>  <tPSA>  (3) 
6.598000000000000e+001

>  <Hacc>  (3) 
3

>  <Hdon>  (3) 
2

>  <Name>  (3) 
3-propyl-1H-pyrazole-4-carboxylic acid

>  <logSw>  (3) 
-1.150000000000000e+000

>  <Library>  (3) 
ExpressPick

$$$$
3007493
     RDKit          2D

 11 11  0  0  0  0  0  0  0  0999 V2000
    0.6500    0.9458    0.0000 C   0  0  0  0  0  0  0  0  0  0  0  0
    1.3667    1.0125    0.0000 C   0  0  0  0  0  0  0  0  0  0  0  0
    0.3500    1.5958    0.0000 C   0  0  0  0  0  0  0  0  0  0  0  0
    0.9000    2.0958    0.0000 S   0  0  0  0  0  0  0  0  0  0  0  0
    0.2667    0.3458    0.0000 C   0  0  0  0  0  0  0  0  0  0  0  0
    1.5292    1.7333    0.0000 C   0  0  0  0  0  0  0  0  0  0  0  0
    0.6167   -0.2792    0.0000 O   0  0  0  0  0  0  0  0  0  0  0  0
   -0.4458    0.3458    0.0000 O   0  0  0  0  0  0  0  0  0  0  0  0
    1.8375    0.4625    0.0000 C   0  0  0  0  0  0  0  0  0  0  0  0
    2.1875    2.0208    0.0000 C   0  0  0  0  0  0  0  0  0  0  0  0
    2.5500    0.6125    0.0000 C   0  0  0  0  0  0  0  0  0  0  0  0
  2  1  1  0
  3  1  2  0
  4  3  1  0
  5  1  1  0
  6  2  2  0
  7  5  2  0
  8  5  1  0
  9  2  1  0
 10  6  1  0
 11  9  1  0
  6  4  1  0
M  END
>  <ID>  (4) 
3007493

>  <RB>  (4) 
1

>  <clogP>  (4) 
2.230000000000000e+000

>  <Supplier>  (4) 
ChemBridge

>  <tPSA>  (4) 
3.730000000000000e+001

>  <Hacc>  (4) 
2

>  <Hdon>  (4) 
1

>  <Name>  (4) 
4-ethyl-5-methylthiophene-3-carboxylic acid

>  <logSw>  (4) 
-3.245000000000000e+000

>  <Library>  (4) 
ExpressPick

$$$$
3013793
     RDKit          2D

 13 13  0  0  0  0  0  0  0  0999 V2000
    1.1292    0.0125    0.0000 C   0  0  0  0  0  0  0  0  0  0  0  0
   -3.7708    1.6958    0.0000 C   0  0  0  0  0  0  0  0  0  0  0  0
   -0.8333    0.0125    0.0000 O   0  0  0  0  0  0  0  0  0  0  0  0
    2.0875   -1.6875    0.0000 C   0  0  0  0  0  0  0  0  0  0  0  0
    2.1042    1.6958    0.0000 C   0  0  0  0  0  0  0  0  0  0  0  0
   -4.7333    0.0125    0.0000 O   0  0  0  0  0  0  0  0  0  0  0  0
    4.0500   -1.6875    0.0000 C   0  0  0  0  0  0  0  0  0  0  0  0
   -1.8125    1.6958    0.0000 C   0  0  0  0  0  0  0  0  0  0  0  0
    4.0667    1.6958    0.0000 C   0  0  0  0  0  0  0  0  0  0  0  0
    1.1042   -3.3875    0.0000 Cl  0  0  0  0  0  0  0  0  0  0  0  0
   -4.7500    3.3958    0.0000 O   0  0  0  0  0  0  0  0  0  0  0  0
    5.0292   -0.0042    0.0000 C   0  0  0  0  0  0  0  0  0  0  0  0
    5.0667    3.3958    0.0000 C   0  0  0  0  0  0  0  0  0  0  0  0
  2  8  1  0
  3  1  1  0
  4  1  2  0
  5  1  1  0
  6  2  2  0
  7  4  1  0
  8  3  1  0
  9  5  2  0
 10  4  1  0
 11  2  1  0
 12  9  1  0
 13  9  1  0
 12  7  2  0
M  END
>  <ID>  (5) 
3013793

>  <RB>  (5) 
3

>  <clogP>  (5) 
2.470000000000000e+000

>  <Supplier>  (5) 
ChemBridge

>  <tPSA>  (5) 
4.652999999999998e+001

>  <Hacc>  (5) 
3

>  <Hdon>  (5) 
1

>  <Name>  (5) 
(2-chloro-5-methylphenoxy)acetic acid

>  <logSw>  (5) 
-2.422000000000000e+000

>  <Scheme>  (5) 
314

>  <Library>  (5) 
ExpressPick

$$$$
3013797
     RDKit          2D

 13 13  0  0  0  0  0  0  0  0999 V2000
    2.0875   -1.4292    0.0000 C   0  0  0  0  0  0  0  0  0  0  0  0
    0.7667   -1.4292    0.0000 C   0  0  0  0  0  0  0  0  0  0  0  0
   -3.2125    0.8500    0.0000 C   0  0  0  0  0  0  0  0  0  0  0  0
    2.7500   -0.2875    0.0000 C   0  0  0  0  0  0  0  0  0  0  0  0
   -3.8708   -0.2875    0.0000 O   0  0  0  0  0  0  0  0  0  0  0  0
    0.1042   -0.2875    0.0000 C   0  0  0  0  0  0  0  0  0  0  0  0
    2.0875    0.8708    0.0000 C   0  0  0  0  0  0  0  0  0  0  0  0
   -1.2333   -0.2875    0.0000 O   0  0  0  0  0  0  0  0  0  0  0  0
   -1.8958    0.8708    0.0000 C   0  0  0  0  0  0  0  0  0  0  0  0
    2.7500   -2.5875    0.0000 Cl  0  0  0  0  0  0  0  0  0  0  0  0
    4.0667   -0.2875    0.0000 F   0  0  0  0  0  0  0  0  0  0  0  0
   -3.8708    2.0208    0.0000 O   0  0  0  0  0  0  0  0  0  0  0  0
    0.7667    0.8708    0.0000 C   0  0  0  0  0  0  0  0  0  0  0  0
  2  1  2  0
  3  9  1  0
  4  1  1  0
  5  3  2  0
  6  2  1  0
  7  4  2  0
  8  6  1  0
  9  8  1  0
 10  1  1  0
 11  4  1  0
 12  3  1  0
 13  7  1  0
 13  6  2  0
M  END
>  <ID>  (6) 
3013797

>  <RB>  (6) 
3

>  <clogP>  (6) 
2.400000000000000e+000

>  <Supplier>  (6) 
ChemBridge

>  <tPSA>  (6) 
4.652999999999998e+001

>  <Hacc>  (6) 
3

>  <Hdon>  (6) 
1

>  <Name>  (6) 
(3-chloro-4-fluorophenoxy)acetic acid

>  <logSw>  (6) 
-2.154000000000000e+000

>  <Library>  (6) 
ExpressPick

$$$$
3013798
     RDKit          2D

 13 13  0  0  0  0  0  0  0  0999 V2000
    1.2542   -1.7375    0.0000 C   0  0  0  0  0  0  0  0  0  0  0  0
    2.3542   -1.7375    0.0000 C   0  0  0  0  0  0  0  0  0  0  0  0
    0.7000   -0.8000    0.0000 C   0  0  0  0  0  0  0  0  0  0  0  0
   -2.0625   -1.7375    0.0000 C   0  0  0  0  0  0  0  0  0  0  0  0
   -0.4000   -0.8000    0.0000 O   0  0  0  0  0  0  0  0  0  0  0  0
   -2.6208   -2.7000    0.0000 O   0  0  0  0  0  0  0  0  0  0  0  0
    1.2542    0.1625    0.0000 C   0  0  0  0  0  0  0  0  0  0  0  0
    2.9167   -0.8000    0.0000 C   0  0  0  0  0  0  0  0  0  0  0  0
   -0.9625   -1.7375    0.0000 C   0  0  0  0  0  0  0  0  0  0  0  0
    0.6792   -2.7000    0.0000 F   0  0  0  0  0  0  0  0  0  0  0  0
   -2.6208   -0.7792    0.0000 O   0  0  0  0  0  0  0  0  0  0  0  0
    2.3542    0.1833    0.0000 C   0  0  0  0  0  0  0  0  0  0  0  0
    4.0167   -0.8000    0.0000 F   0  0  0  0  0  0  0  0  0  0  0  0
  2  1  2  0
  3  1  1  0
  4  9  1  0
  5  3  1  0
  6  4  2  0
  7  3  2  0
  8  2  1  0
  9  5  1  0
 10  1  1  0
 11  4  1  0
 12  7  1  0
 13  8  1  0
 12  8  2  0
M  END
>  <ID>  (7) 
3013798

>  <RB>  (7) 
3

>  <clogP>  (7) 
1.630000000000000e+000

>  <Supplier>  (7) 
ChemBridge

>  <tPSA>  (7) 
4.652999999999998e+001

>  <Hacc>  (7) 
3

>  <Hdon>  (7) 
1

>  <Name>  (7) 
(2,4-difluorophenoxy)acetic acid

>  <logSw>  (7) 
-1.655000000000000e+000

>  <Scheme>  (7) 
314

>  <Library>  (7) 
ExpressPick

$$$$
3013808
     RDKit          2D

 13 13  0  0  0  0  0  0  0  0999 V2000
   -4.0208    1.7125    0.0000 C   0  0  0  0  0  0  0  0  0  0  0  0
    0.2667    0.2500    0.0000 C   0  0  0  0  0  0  0  0  0  0  0  0
   -4.8500    0.2500    0.0000 O   0  0  0  0  0  0  0  0  0  0  0  0
    2.8292    1.7125    0.0000 C   0  0  0  0  0  0  0  0  0  0  0  0
    2.8292   -1.2500    0.0000 C   0  0  0  0  0  0  0  0  0  0  0  0
   -1.4500    0.2500    0.0000 O   0  0  0  0  0  0  0  0  0  0  0  0
    1.1042   -1.2500    0.0000 C   0  0  0  0  0  0  0  0  0  0  0  0
    1.1042    1.7125    0.0000 C   0  0  0  0  0  0  0  0  0  0  0  0
    3.6667    0.2500    0.0000 C   0  0  0  0  0  0  0  0  0  0  0  0
   -2.2958    1.7125    0.0000 C   0  0  0  0  0  0  0  0  0  0  0  0
   -4.8500    3.1958    0.0000 O   0  0  0  0  0  0  0  0  0  0  0  0
    3.7042   -2.7292    0.0000 C   0  0  0  0  0  0  0  0  0  0  0  0
    3.6875    3.2125    0.0000 C   0  0  0  0  0  0  0  0  0  0  0  0
  2  6  1  0
  3  1  2  0
  4  8  2  0
  5  7  1  0
  6 10  1  0
  7  2  2  0
  8  2  1  0
  9  4  1  0
 10  1  1  0
 11  1  1  0
 12  5  1  0
 13  4  1  0
  5  9  2  0
M  END
>  <ID>  (8) 
3013808

>  <RB>  (8) 
3

>  <clogP>  (8) 
2.350000000000000e+000

>  <Supplier>  (8) 
ChemBridge

>  <tPSA>  (8) 
4.652999999999998e+001

>  <Hacc>  (8) 
3

>  <Hdon>  (8) 
1

>  <Name>  (8) 
(3,5-dimethylphenoxy)acetic acid

>  <logSw>  (8) 
-2.190000000000000e+000

>  <Scheme>  (8) 
314

>  <Library>  (8) 
ExpressPick

$$$$
3013817
     RDKit          2D

 14 15  0  0  0  0  0  0  0  0999 V2000
    2.1542   -0.5875    0.0000 C   0  0  0  0  0  0  0  0  0  0  0  0
   -2.5833    1.4500    0.0000 C   0  0  0  0  0  0  0  0  0  0  0  0
    2.7542    0.4333    0.0000 C   0  0  0  0  0  0  0  0  0  0  0  0
    0.9792   -0.5875    0.0000 C   0  0  0  0  0  0  0  0  0  0  0  0
   -3.1833    2.4708    0.0000 O   0  0  0  0  0  0  0  0  0  0  0  0
    2.1542    1.4500    0.0000 C   0  0  0  0  0  0  0  0  0  0  0  0
    0.3792    0.4333    0.0000 C   0  0  0  0  0  0  0  0  0  0  0  0
   -0.8000    0.4333    0.0000 O   0  0  0  0  0  0  0  0  0  0  0  0
   -1.4000    1.4500    0.0000 C   0  0  0  0  0  0  0  0  0  0  0  0
   -3.1833    0.4333    0.0000 O   0  0  0  0  0  0  0  0  0  0  0  0
    0.9792    1.4500    0.0000 C   0  0  0  0  0  0  0  0  0  0  0  0
    2.9542   -1.4875    0.0000 C   0  0  0  0  0  0  0  0  0  0  0  0
    4.0167   -1.0042    0.0000 C   0  0  0  0  0  0  0  0  0  0  0  0
    3.9000    0.1708    0.0000 C   0  0  0  0  0  0  0  0  0  0  0  0
  2  9  1  0
  3  1  1  0
  4  1  2  0
  5  2  2  0
  6  3  2  0
  7  4  1  0
  8  7  1  0
  9  8  1  0
 10  2  1  0
 11  7  2  0
 12  1  1  0
 13 12  1  0
 14  3  1  0
 13 14  1  0
 11  6  1  0
M  END
>  <ID>  (9) 
3013817

>  <RB>  (9) 
3

>  <clogP>  (9) 
2.360000000000000e+000

>  <Supplier>  (9) 
ChemBridge

>  <tPSA>  (9) 
4.652999999999998e+001

>  <Hacc>  (9) 
3

>  <Hdon>  (9) 
1

>  <Name>  (9) 
(2,3-dihydro-1H-inden-5-yloxy)acetic acid

>  <logSw>  (9) 
-2.198000000000000e+000

>  <Scheme>  (9) 
314

>  <Library>  (9) 
ExpressPick

$$$$
3013821
     RDKit          2D

 13 13  0  0  0  0  0  0  0  0999 V2000
    0.8667    2.9625    0.0000 C   0  0  0  0  0  0  0  0  0  0  0  0
    2.5667    2.9625    0.0000 C   0  0  0  0  0  0  0  0  0  0  0  0
    0.0292    1.5000    0.0000 C   0  0  0  0  0  0  0  0  0  0  0  0
   -4.2208    0.0208    0.0000 C   0  0  0  0  0  0  0  0  0  0  0  0
   -1.6708    1.5000    0.0000 O   0  0  0  0  0  0  0  0  0  0  0  0
   -5.0708    1.5000    0.0000 O   0  0  0  0  0  0  0  0  0  0  0  0
    0.8875    0.0208    0.0000 C   0  0  0  0  0  0  0  0  0  0  0  0
    3.4042    1.5000    0.0000 C   0  0  0  0  0  0  0  0  0  0  0  0
   -2.5125    0.0458    0.0000 C   0  0  0  0  0  0  0  0  0  0  0  0
    0.0042    4.4167    0.0000 Cl  0  0  0  0  0  0  0  0  0  0  0  0
   -5.0500   -1.4375    0.0000 O   0  0  0  0  0  0  0  0  0  0  0  0
    2.5875    0.0458    0.0000 C   0  0  0  0  0  0  0  0  0  0  0  0
    5.1042    1.5000    0.0000 F   0  0  0  0  0  0  0  0  0  0  0  0
  2  1  2  0
  3  1  1  0
  4  9  1  0
  5  3  1  0
  6  4  2  0
  7  3  2  0
  8  2  1  0
  9  5  1  0
 10  1  1  0
 11  4  1  0
 12  7  1  0
 13  8  1  0
 12  8  2  0
M  END
>  <ID>  (10) 
3013821

>  <RB>  (10) 
3

>  <clogP>  (10) 
2.170000000000000e+000

>  <Supplier>  (10) 
ChemBridge

>  <tPSA>  (10) 
4.652999999999998e+001

>  <Hacc>  (10) 
3

>  <Hdon>  (10) 
1

>  <Name>  (10) 
(2-chloro-4-fluorophenoxy)acetic acid

>  <logSw>  (10) 
-2.154000000000000e+000

>  <Scheme>  (10) 
314

>  <Library>  (10) 
ExpressPick

$$$$
3013832
     RDKit          2D

 14 14  0  0  0  0  0  0  0  0999 V2000
   -0.4208   -2.2375    0.0000 O   0  0  0  0  0  0  0  0  0  0  0  0
   -2.9625   -0.7500    0.0000 C   0  0  0  0  0  0  0  0  0  0  0  0
    0.4375   -0.7667    0.0000 C   0  0  0  0  0  0  0  0  0  0  0  0
    2.1292   -0.7875    0.0000 C   0  0  0  0  0  0  0  0  0  0  0  0
    2.9875    0.6708    0.0000 C   0  0  0  0  0  0  0  0  0  0  0  0
   -2.1208   -2.2042    0.0000 C   0  0  0  0  0  0  0  0  0  0  0  0
   -2.0833    0.7333    0.0000 O   0  0  0  0  0  0  0  0  0  0  0  0
   -0.3958    0.7125    0.0000 C   0  0  0  0  0  0  0  0  0  0  0  0
    2.1542    2.1458    0.0000 C   0  0  0  0  0  0  0  0  0  0  0  0
    2.9542   -2.3000    0.0000 F   0  0  0  0  0  0  0  0  0  0  0  0
   -4.6625   -0.7500    0.0000 O   0  0  0  0  0  0  0  0  0  0  0  0
    0.4542    2.1833    0.0000 C   0  0  0  0  0  0  0  0  0  0  0  0
    3.0375    3.6083    0.0000 F   0  0  0  0  0  0  0  0  0  0  0  0
   -2.9958   -3.6792    0.0000 C   0  0  0  0  0  0  0  0  0  0  0  0
  2  6  1  0
  3  1  1  0
  4  3  2  0
  5  4  1  0
  6  1  1  0
  7  2  2  0
  8  3  1  0
  9 12  1  0
 10  4  1  0
 11  2  1  0
 12  8  2  0
 13  9  1  0
 14  6  1  0
  5  9  2  0
M  END
>  <ID>  (11) 
3013832

>  <RB>  (11) 
3

>  <clogP>  (11) 
2.150000000000000e+000

>  <Supplier>  (11) 
ChemBridge

>  <tPSA>  (11) 
4.652999999999998e+001

>  <Hacc>  (11) 
3

>  <Hdon>  (11) 
1

>  <Name>  (11) 
2-(2,4-difluorophenoxy)propanoic acid

>  <logSw>  (11) 
-2.114000000000000e+000

>  <Library>  (11) 
ExpressPick

>  <stereochemistry>  (11) 
unknown

$$$$
3013838
     RDKit          2D

 13 13  0  0  0  0  0  0  0  0999 V2000
   -2.5000    0.0208    0.0000 C   0  0  0  0  0  0  0  0  0  0  0  0
    0.0667   -1.4375    0.0000 O   0  0  0  0  0  0  0  0  0  0  0  0
    0.9167    0.0625    0.0000 C   0  0  0  0  0  0  0  0  0  0  0  0
   -1.6333   -1.4375    0.0000 C   0  0  0  0  0  0  0  0  0  0  0  0
   -1.6458    1.5333    0.0000 O   0  0  0  0  0  0  0  0  0  0  0  0
    2.6000    0.0708    0.0000 C   0  0  0  0  0  0  0  0  0  0  0  0
   -4.2083    0.0208    0.0000 O   0  0  0  0  0  0  0  0  0  0  0  0
    0.0292    1.5208    0.0000 C   0  0  0  0  0  0  0  0  0  0  0  0
   -2.4833   -2.9375    0.0000 C   0  0  0  0  0  0  0  0  0  0  0  0
    3.4792   -1.4167    0.0000 C   0  0  0  0  0  0  0  0  0  0  0  0
    3.4500    1.5625    0.0000 C   0  0  0  0  0  0  0  0  0  0  0  0
    0.8792    3.0208    0.0000 C   0  0  0  0  0  0  0  0  0  0  0  0
    2.6000    3.0208    0.0000 C   0  0  0  0  0  0  0  0  0  0  0  0
  2  4  1  0
  3  2  1  0
  4  1  1  0
  5  1  2  0
  6  3  2  0
  7  1  1  0
  8  3  1  0
  9  4  1  0
 10  6  1  0
 11  6  1  0
 12  8  2  0
 13 12  1  0
 11 13  2  0
M  END
>  <ID>  (12) 
3013838

>  <RB>  (12) 
3

>  <clogP>  (12) 
2.380000000000000e+000

>  <Supplier>  (12) 
ChemBridge

>  <tPSA>  (12) 
4.652999999999998e+001

>  <Hacc>  (12) 
3

>  <Hdon>  (12) 
1

>  <Name>  (12) 
2-(2-methylphenoxy)propanoic acid

>  <logSw>  (12) 
-2.079000000000000e+000

>  <Scheme>  (12) 
314

>  <Library>  (12) 
ExpressPick

>  <stereochemistry>  (12) 
unknown

$$$$
3013839
     RDKit          2D

 13 13  0  0  0  0  0  0  0  0999 V2000
   -2.5125    0.0125    0.0000 C   0  0  0  0  0  0  0  0  0  0  0  0
    0.0542   -1.4542    0.0000 O   0  0  0  0  0  0  0  0  0  0  0  0
   -1.6458   -1.4542    0.0000 C   0  0  0  0  0  0  0  0  0  0  0  0
   -1.6500    1.5125    0.0000 O   0  0  0  0  0  0  0  0  0  0  0  0
    0.9042    0.0458    0.0000 C   0  0  0  0  0  0  0  0  0  0  0  0
    2.6042    0.0458    0.0000 C   0  0  0  0  0  0  0  0  0  0  0  0
   -4.2208    0.0125    0.0000 O   0  0  0  0  0  0  0  0  0  0  0  0
    3.4542    1.5333    0.0000 C   0  0  0  0  0  0  0  0  0  0  0  0
    0.8792    2.9958    0.0000 C   0  0  0  0  0  0  0  0  0  0  0  0
    0.0292    1.4958    0.0000 C   0  0  0  0  0  0  0  0  0  0  0  0
   -2.4958   -2.9500    0.0000 C   0  0  0  0  0  0  0  0  0  0  0  0
    2.5875    2.9958    0.0000 C   0  0  0  0  0  0  0  0  0  0  0  0
    5.1792    1.5625    0.0000 C   0  0  0  0  0  0  0  0  0  0  0  0
  2  3  1  0
  3  1  1  0
  4  1  2  0
  5  2  1  0
  6  5  2  0
  7  1  1  0
  8  6  1  0
  9 10  2  0
 10  5  1  0
 11  3  1  0
 12  9  1  0
 13  8  1  0
 12  8  2  0
M  END
>  <ID>  (13) 
3013839

>  <RB>  (13) 
3

>  <clogP>  (13) 
2.380000000000000e+000

>  <Supplier>  (13) 
ChemBridge

>  <tPSA>  (13) 
4.652999999999998e+001

>  <Hacc>  (13) 
3

>  <Hdon>  (13) 
1

>  <Name>  (13) 
2-(3-methylphenoxy)propanoic acid

>  <logSw>  (13) 
-2.079000000000000e+000

>  <Scheme>  (13) 
314

>  <Library>  (13) 
ExpressPick

>  <stereochemistry>  (13) 
unknown

$$$$
3013908
     RDKit          2D

 13 13  0  0  0  0  0  0  0  0999 V2000
   -1.0625   -1.6167    0.0000 C   0  0  0  0  0  0  0  0  0  0  0  0
   -3.1208   -1.6167    0.0000 C   0  0  0  0  0  0  0  0  0  0  0  0
    1.0000   -1.6167    0.0000 O   0  0  0  0  0  0  0  0  0  0  0  0
   -4.1625    0.1833    0.0000 O   0  0  0  0  0  0  0  0  0  0  0  0
   -4.1458   -3.3792    0.0000 O   0  0  0  0  0  0  0  0  0  0  0  0
    2.0542    0.1625    0.0000 C   0  0  0  0  0  0  0  0  0  0  0  0
   -1.0625    0.4458    0.0000 C   0  0  0  0  0  0  0  0  0  0  0  0
   -1.0625   -3.6542    0.0000 C   0  0  0  0  0  0  0  0  0  0  0  0
    4.1167    0.1625    0.0000 C   0  0  0  0  0  0  0  0  0  0  0  0
    1.0375    1.9458    0.0000 C   0  0  0  0  0  0  0  0  0  0  0  0
    5.1375    1.9458    0.0000 C   0  0  0  0  0  0  0  0  0  0  0  0
    2.0792    3.7208    0.0000 C   0  0  0  0  0  0  0  0  0  0  0  0
    4.1375    3.7083    0.0000 C   0  0  0  0  0  0  0  0  0  0  0  0
  2  1  1  0
  3  1  1  0
  4  2  2  0
  5  2  1  0
  6  3  1  0
  7  1  1  0
  8  1  1  0
  9  6  2  0
 10  6  1  0
 11  9  1  0
 12 10  2  0
 13 12  1  0
 13 11  2  0
M  END
>  <ID>  (14) 
3013908

>  <RB>  (14) 
3

>  <clogP>  (14) 
2.410000000000000e+000

>  <Supplier>  (14) 
ChemBridge

>  <tPSA>  (14) 
4.652999999999998e+001

>  <Hacc>  (14) 
3

>  <Hdon>  (14) 
1

>  <Name>  (14) 
2-methyl-2-phenoxypropanoic acid

>  <logSw>  (14) 
-1.999000000000000e+000

>  <Scheme>  (14) 
314

>  <Library>  (14) 
ExpressPick

$$$$
3013974
     RDKit          2D

 12 12  0  0  0  0  0  0  0  0999 V2000
   -2.1708    0.8708    0.0000 C   0  0  0  0  0  0  0  0  0  0  0  0
   -2.4625    1.3833    0.0000 O   0  0  0  0  0  0  0  0  0  0  0  0
   -0.4500    1.8500    0.0000 C   0  0  0  0  0  0  0  0  0  0  0  0
   -1.3125    1.3833    0.0000 O   0  0  0  0  0  0  0  0  0  0  0  0
   -1.6000    0.8708    0.0000 C   0  0  0  0  0  0  0  0  0  0  0  0
   -0.7458    1.3500    0.0000 C   0  0  0  0  0  0  0  0  0  0  0  0
    0.1500    1.8500    0.0000 C   0  0  0  0  0  0  0  0  0  0  0  0
   -2.4500    0.3708    0.0000 O   0  0  0  0  0  0  0  0  0  0  0  0
    0.4542    2.3458    0.0000 Br  0  0  0  0  0  0  0  0  0  0  0  0
    0.1042    0.8500    0.0000 C   0  0  0  0  0  0  0  0  0  0  0  0
   -0.4500    0.8708    0.0000 C   0  0  0  0  0  0  0  0  0  0  0  0
    0.4292    1.3708    0.0000 C   0  0  0  0  0  0  0  0  0  0  0  0
  2  1  2  0
  3  6  2  0
  4  5  1  0
  5  1  1  0
  6  4  1  0
  7  3  1  0
  8  1  1  0
  9  7  1  0
 10 11  2  0
 11  6  1  0
 12 10  1  0
 12  7  2  0
M  END
>  <ID>  (15) 
3013974

>  <RB>  (15) 
3

>  <clogP>  (15) 
2.350000000000000e+000

>  <Supplier>  (15) 
ChemBridge

>  <tPSA>  (15) 
4.652999999999998e+001

>  <Hacc>  (15) 
3

>  <Hdon>  (15) 
1

>  <Name>  (15) 
(3-bromophenoxy)acetic acid

>  <logSw>  (15) 
-2.387000000000000e+000

>  <Scheme>  (15) 
314

>  <Library>  (15) 
ExpressPick

$$$$
3013975
     RDKit          2D

 12 12  0  0  0  0  0  0  0  0999 V2000
   -2.3625    1.8625    0.0000 C   0  0  0  0  0  0  0  0  0  0  0  0
   -1.5208    1.3833    0.0000 O   0  0  0  0  0  0  0  0  0  0  0  0
   -0.9458    1.3833    0.0000 C   0  0  0  0  0  0  0  0  0  0  0  0
   -2.6625    2.3625    0.0000 O   0  0  0  0  0  0  0  0  0  0  0  0
   -0.6625    1.8625    0.0000 C   0  0  0  0  0  0  0  0  0  0  0  0
   -1.8000    1.8625    0.0000 C   0  0  0  0  0  0  0  0  0  0  0  0
   -0.9458    2.3625    0.0000 F   0  0  0  0  0  0  0  0  0  0  0  0
   -2.6458    1.3833    0.0000 O   0  0  0  0  0  0  0  0  0  0  0  0
   -0.6625    0.8833    0.0000 C   0  0  0  0  0  0  0  0  0  0  0  0
   -0.1000    1.8625    0.0000 C   0  0  0  0  0  0  0  0  0  0  0  0
    0.2000    1.3833    0.0000 C   0  0  0  0  0  0  0  0  0  0  0  0
   -0.0833    0.8833    0.0000 C   0  0  0  0  0  0  0  0  0  0  0  0
  2  6  1  0
  3  2  1  0
  4  1  2  0
  5  3  2  0
  6  1  1  0
  7  5  1  0
  8  1  1  0
  9  3  1  0
 10  5  1  0
 11 12  1  0
 12  9  2  0
 10 11  2  0
M  END
>  <ID>  (16) 
3013975

>  <RB>  (16) 
3

>  <clogP>  (16) 
1.430000000000000e+000

>  <Supplier>  (16) 
ChemBridge

>  <tPSA>  (16) 
4.652999999999998e+001

>  <Hacc>  (16) 
3

>  <Hdon>  (16) 
1

>  <Name>  (16) 
(2-fluorophenoxy)acetic acid

>  <logSw>  (16) 
-1.235000000000000e+000

>  <Scheme>  (16) 
314

>  <Library>  (16) 
ExpressPick

$$$$
4000011
     RDKit          2D

 13 14  0  0  0  0  0  0  0  0999 V2000
   -1.2958    0.7625    0.0000 O   0  0  0  0  0  0  0  0  0  0  0  0
   -0.4125    1.9625    0.0000 C   0  0  0  0  0  0  0  0  0  0  0  0
   -0.4125    1.0458    0.0000 C   0  0  0  0  0  0  0  0  0  0  0  0
   -1.8125    1.5000    0.0000 C   0  0  0  0  0  0  0  0  0  0  0  0
   -1.2958    2.2458    0.0000 C   0  0  0  0  0  0  0  0  0  0  0  0
    0.3875    2.4208    0.0000 C   0  0  0  0  0  0  0  0  0  0  0  0
    0.3875    0.5833    0.0000 C   0  0  0  0  0  0  0  0  0  0  0  0
    1.1875    1.9625    0.0000 C   0  0  0  0  0  0  0  0  0  0  0  0
    1.1875    1.0458    0.0000 C   0  0  0  0  0  0  0  0  0  0  0  0
    2.8000    1.9958    0.0000 N   0  0  0  0  0  0  0  0  0  0  0  0
   -2.6333    0.8208    0.0000 C   0  0  0  0  0  0  0  0  0  0  0  0
   -2.6500    1.9333    0.0000 C   0  0  0  0  0  0  0  0  0  0  0  0
    1.9875    2.4458    0.0000 C   0  0  0  0  0  0  0  0  0  0  0  0
  2  3  2  0
  3  1  1  0
  4  1  1  0
  5  4  1  0
  6  2  1  0
  7  3  1  0
  8  9  1  0
  9  7  2  0
 10 13  1  0
 11  4  1  0
 12  4  1  0
 13  8  1  0
  2  5  1  0
  6  8  2  0
M  END
>  <ID>  (17) 
4000011

>  <RB>  (17) 
1

>  <clogP>  (17) 
2.186000000000000e+000

>  <Supplier>  (17) 
ChemBridge

>  <tPSA>  (17) 
3.525000000000000e+001

>  <Hacc>  (17) 
2

>  <Hdon>  (17) 
1

>  <Name>  (17) 
[(2,2-dimethyl-2,3-dihydro-1-benzofuran-5-yl)methyl]amine hydrochloride

>  <logSw>  (17) 
-1.353000000000000e+000

>  <Library>  (17) 
ExpressPick

$$$$
4000088
     RDKit          2D

 14 15  0  0  0  0  0  0  0  0999 V2000
    2.7042    0.6083    0.0000 C   0  0  0  0  0  0  0  0  0  0  0  0
    3.4167    0.1958    0.0000 C   0  0  0  0  0  0  0  0  0  0  0  0
    1.9917    0.1875    0.0000 C   0  0  0  0  0  0  0  0  0  0  0  0
    1.2750    0.6000    0.0000 N   0  0  0  0  0  0  0  0  0  0  0  0
    2.7000    1.4250    0.0000 O   0  0  0  0  0  0  0  0  0  0  0  0
    4.8417    0.2083    0.0000 N   0  0  0  0  0  0  0  0  0  0  0  0
    4.1250    0.6125    0.0000 C   0  0  0  0  0  0  0  0  0  0  0  0
    3.4167   -0.6292    0.0000 C   0  0  0  0  0  0  0  0  0  0  0  0
    0.5625    0.1875    0.0000 C   0  0  0  0  0  0  0  0  0  0  0  0
    4.8500   -0.6167    0.0000 C   0  0  0  0  0  0  0  0  0  0  0  0
    1.9917   -0.6417    0.0000 C   0  0  0  0  0  0  0  0  0  0  0  0
    4.1292   -1.0375    0.0000 C   0  0  0  0  0  0  0  0  0  0  0  0
    0.5625   -0.6417    0.0000 C   0  0  0  0  0  0  0  0  0  0  0  0
    1.2750   -1.0542    0.0000 C   0  0  0  0  0  0  0  0  0  0  0  0
  2  1  1  0
  3  1  1  0
  4  3  2  0
  5  1  2  0
  6  7  2  0
  7  2  1  0
  8  2  2  0
  9  4  1  0
 10 12  2  0
 11  3  1  0
 12  8  1  0
 13 14  1  0
 14 11  2  0
  9 13  2  0
  6 10  1  0
M  END
>  <ID>  (18) 
4000088

>  <RB>  (18) 
2

>  <clogP>  (18) 
1.113000000000000e+000

>  <Supplier>  (18) 
ChemBridge

>  <tPSA>  (18) 
4.285000000000000e+001

>  <Hacc>  (18) 
3

>  <Hdon>  (18) 
0

>  <Name>  (18) 
pyridin-2-yl(pyridin-3-yl)methanone

>  <logSw>  (18) 
-1.128000000000000e+000

>  <Library>  (18) 
ExpressPick

$$$$
4000089
     RDKit          2D

 14 15  0  0  0  0  0  0  0  0999 V2000
    2.4917   -0.5417    0.0000 C   0  0  0  0  0  0  0  0  0  0  0  0
    1.7792   -0.9625    0.0000 C   0  0  0  0  0  0  0  0  0  0  0  0
    1.0625   -0.5500    0.0000 N   0  0  0  0  0  0  0  0  0  0  0  0
    2.4875    0.2750    0.0000 O   0  0  0  0  0  0  0  0  0  0  0  0
    4.6375   -1.7667    0.0000 N   0  0  0  0  0  0  0  0  0  0  0  0
    3.2042   -0.9542    0.0000 C   0  0  0  0  0  0  0  0  0  0  0  0
    0.3500   -0.9625    0.0000 C   0  0  0  0  0  0  0  0  0  0  0  0
    4.6292   -0.9417    0.0000 C   0  0  0  0  0  0  0  0  0  0  0  0
    3.9167   -2.1875    0.0000 C   0  0  0  0  0  0  0  0  0  0  0  0
    1.7792   -1.7917    0.0000 C   0  0  0  0  0  0  0  0  0  0  0  0
    3.9125   -0.5375    0.0000 C   0  0  0  0  0  0  0  0  0  0  0  0
    3.2042   -1.7792    0.0000 C   0  0  0  0  0  0  0  0  0  0  0  0
    0.3500   -1.7917    0.0000 C   0  0  0  0  0  0  0  0  0  0  0  0
    1.0625   -2.2042    0.0000 C   0  0  0  0  0  0  0  0  0  0  0  0
  2  1  1  0
  3  2  2  0
  4  1  2  0
  5  9  2  0
  6  1  1  0
  7  3  1  0
  8 11  2  0
  9 12  1  0
 10  2  1  0
 11  6  1  0
 12  6  2  0
 13 14  1  0
 14 10  2  0
  8  5  1  0
  7 13  2  0
M  END
>  <ID>  (19) 
4000089

>  <RB>  (19) 
2

>  <clogP>  (19) 
1.113000000000000e+000

>  <Supplier>  (19) 
ChemBridge

>  <tPSA>  (19) 
4.285000000000000e+001

>  <Hacc>  (19) 
3

>  <Hdon>  (19) 
0

>  <Name>  (19) 
pyridin-2-yl(pyridin-4-yl)methanone

>  <logSw>  (19) 
-2.467000000000000e+000

>  <Library>  (19) 
ExpressPick

$$$$
4000090
     RDKit          2D

 15 16  0  0  0  0  0  0  0  0999 V2000
   -2.6333    1.7833    0.0000 C   0  0  0  0  0  0  0  0  0  0  0  0
   -1.9208    1.3750    0.0000 C   0  0  0  0  0  0  0  0  0  0  0  0
   -3.3458    1.3708    0.0000 C   0  0  0  0  0  0  0  0  0  0  0  0
   -1.2125    1.7958    0.0000 C   0  0  0  0  0  0  0  0  0  0  0  0
   -4.0625    1.7833    0.0000 N   0  0  0  0  0  0  0  0  0  0  0  0
   -2.6375    2.6083    0.0000 O   0  0  0  0  0  0  0  0  0  0  0  0
   -1.2208    2.6208    0.0000 Cl  0  0  0  0  0  0  0  0  0  0  0  0
   -1.9208    0.5500    0.0000 C   0  0  0  0  0  0  0  0  0  0  0  0
   -4.7833    1.3625    0.0000 C   0  0  0  0  0  0  0  0  0  0  0  0
   -3.3458    0.5375    0.0000 C   0  0  0  0  0  0  0  0  0  0  0  0
   -0.4958    1.3875    0.0000 C   0  0  0  0  0  0  0  0  0  0  0  0
   -1.2083    0.1458    0.0000 C   0  0  0  0  0  0  0  0  0  0  0  0
   -4.7833    0.5375    0.0000 C   0  0  0  0  0  0  0  0  0  0  0  0
   -4.0625    0.1250    0.0000 C   0  0  0  0  0  0  0  0  0  0  0  0
   -0.4875    0.5583    0.0000 C   0  0  0  0  0  0  0  0  0  0  0  0
  2  1  1  0
  3  1  1  0
  4  2  2  0
  5  3  2  0
  6  1  2  0
  7  4  1  0
  8  2  1  0
  9  5  1  0
 10  3  1  0
 11  4  1  0
 12  8  2  0
 13 14  1  0
 14 10  2  0
 15 12  1  0
  9 13  2  0
 11 15  2  0
M  END
>  <ID>  (20) 
4000090

>  <RB>  (20) 
2

>  <clogP>  (20) 
2.958000000000000e+000

>  <Supplier>  (20) 
ChemBridge

>  <tPSA>  (20) 
2.995999999999999e+001

>  <Hacc>  (20) 
2

>  <Hdon>  (20) 
0

>  <Name>  (20) 
(2-chlorophenyl)(pyridin-2-yl)methanone

>  <logSw>  (20) 
-1.495000000000000e+000

>  <Library>  (20) 
ExpressPick

$$$$
4000099
     RDKit          2D

 15 16  0  0  0  0  0  0  0  0999 V2000
    2.5042   -0.5542    0.0000 C   0  0  0  0  0  0  0  0  0  0  0  0
    3.2167   -0.9625    0.0000 C   0  0  0  0  0  0  0  0  0  0  0  0
    1.7917   -0.9667    0.0000 C   0  0  0  0  0  0  0  0  0  0  0  0
    3.9250   -0.5417    0.0000 C   0  0  0  0  0  0  0  0  0  0  0  0
    2.5000    0.2708    0.0000 O   0  0  0  0  0  0  0  0  0  0  0  0
    0.3625   -0.9750    0.0000 N   0  0  0  0  0  0  0  0  0  0  0  0
    4.6417   -0.9500    0.0000 C   0  0  0  0  0  0  0  0  0  0  0  0
    1.0750   -0.5542    0.0000 C   0  0  0  0  0  0  0  0  0  0  0  0
    5.3542   -0.5292    0.0000 Cl  0  0  0  0  0  0  0  0  0  0  0  0
    3.2167   -1.7875    0.0000 C   0  0  0  0  0  0  0  0  0  0  0  0
    3.9292   -2.1917    0.0000 C   0  0  0  0  0  0  0  0  0  0  0  0
    1.7917   -1.8000    0.0000 C   0  0  0  0  0  0  0  0  0  0  0  0
    0.3625   -1.8000    0.0000 C   0  0  0  0  0  0  0  0  0  0  0  0
    4.6500   -1.7792    0.0000 C   0  0  0  0  0  0  0  0  0  0  0  0
    1.0750   -2.2125    0.0000 C   0  0  0  0  0  0  0  0  0  0  0  0
  2  1  1  0
  3  1  1  0
  4  2  2  0
  5  1  2  0
  6  8  2  0
  7  4  1  0
  8  3  1  0
  9  7  1  0
 10  2  1  0
 11 10  2  0
 12  3  2  0
 13 15  2  0
 14 11  1  0
 15 12  1  0
  6 13  1  0
  7 14  2  0
M  END
>  <ID>  (21) 
4000099

>  <RB>  (21) 
2

>  <clogP>  (21) 
2.818000000000000e+000

>  <Supplier>  (21) 
ChemBridge

>  <tPSA>  (21) 
2.995999999999999e+001

>  <Hacc>  (21) 
2

>  <Hdon>  (21) 
0

>  <Name>  (21) 
(3-chlorophenyl)(pyridin-3-yl)methanone

>  <logSw>  (21) 
-1.154000000000000e+000

>  <Library>  (21) 
ExpressPick

$$$$
4000103
     RDKit          2D

 14 15  0  0  0  0  0  0  0  0999 V2000
    2.0792   -0.5417    0.0000 C   0  0  0  0  0  0  0  0  0  0  0  0
    2.0792    0.2750    0.0000 O   0  0  0  0  0  0  0  0  0  0  0  0
    4.2292   -1.7667    0.0000 N   0  0  0  0  0  0  0  0  0  0  0  0
   -0.0583   -1.7917    0.0000 N   0  0  0  0  0  0  0  0  0  0  0  0
    1.3667   -0.9625    0.0000 C   0  0  0  0  0  0  0  0  0  0  0  0
    2.8000   -0.9542    0.0000 C   0  0  0  0  0  0  0  0  0  0  0  0
    3.5125   -2.1875    0.0000 C   0  0  0  0  0  0  0  0  0  0  0  0
    0.6542   -2.2042    0.0000 C   0  0  0  0  0  0  0  0  0  0  0  0
    4.2167   -0.9417    0.0000 C   0  0  0  0  0  0  0  0  0  0  0  0
   -0.0583   -0.9625    0.0000 C   0  0  0  0  0  0  0  0  0  0  0  0
    0.6542   -0.5500    0.0000 C   0  0  0  0  0  0  0  0  0  0  0  0
    2.8000   -1.7792    0.0000 C   0  0  0  0  0  0  0  0  0  0  0  0
    3.5042   -0.5375    0.0000 C   0  0  0  0  0  0  0  0  0  0  0  0
    1.3667   -1.7917    0.0000 C   0  0  0  0  0  0  0  0  0  0  0  0
  2  1  2  0
  3  9  2  0
  4  8  2  0
  5  1  1  0
  6  1  1  0
  7 12  2  0
  8 14  1  0
  9 13  1  0
 10 11  2  0
 11  5  1  0
 12  6  1  0
 13  6  2  0
 14  5  2  0
  7  3  1  0
 10  4  1  0
M  END
>  <ID>  (22) 
4000103

>  <RB>  (22) 
2

>  <clogP>  (22) 
7.130000000000000e-001

>  <Supplier>  (22) 
ChemBridge

>  <tPSA>  (22) 
4.285000000000000e+001

>  <Hacc>  (22) 
3

>  <Hdon>  (22) 
0

>  <Name>  (22) 
dipyridin-4-ylmethanone

>  <logSw>  (22) 
-2.281000000000000e+000

>  <Library>  (22) 
ExpressPick

$$$$
4000105
     RDKit          2D

 15 16  0  0  0  0  0  0  0  0999 V2000
    2.4917   -0.5417    0.0000 C   0  0  0  0  0  0  0  0  0  0  0  0
    3.2125   -0.9542    0.0000 C   0  0  0  0  0  0  0  0  0  0  0  0
    3.9167   -0.5375    0.0000 C   0  0  0  0  0  0  0  0  0  0  0  0
    2.4917    0.2750    0.0000 O   0  0  0  0  0  0  0  0  0  0  0  0
    0.3542   -1.7917    0.0000 N   0  0  0  0  0  0  0  0  0  0  0  0
    1.7792   -0.9625    0.0000 C   0  0  0  0  0  0  0  0  0  0  0  0
    4.6292   -0.9417    0.0000 C   0  0  0  0  0  0  0  0  0  0  0  0
    5.3417   -0.5250    0.0000 Cl  0  0  0  0  0  0  0  0  0  0  0  0
    3.2125   -1.7792    0.0000 C   0  0  0  0  0  0  0  0  0  0  0  0
    3.9250   -2.1875    0.0000 C   0  0  0  0  0  0  0  0  0  0  0  0
    1.0667   -2.2042    0.0000 C   0  0  0  0  0  0  0  0  0  0  0  0
    0.3542   -0.9625    0.0000 C   0  0  0  0  0  0  0  0  0  0  0  0
    1.7792   -1.7917    0.0000 C   0  0  0  0  0  0  0  0  0  0  0  0
    1.0667   -0.5500    0.0000 C   0  0  0  0  0  0  0  0  0  0  0  0
    4.6417   -1.7667    0.0000 C   0  0  0  0  0  0  0  0  0  0  0  0
  2  1  1  0
  3  2  2  0
  4  1  2  0
  5 12  2  0
  6  1  1  0
  7  3  1  0
  8  7  1  0
  9  2  1  0
 10  9  2  0
 11 13  2  0
 12 14  1  0
 13  6  1  0
 14  6  2  0
 15 10  1  0
  5 11  1  0
  7 15  2  0
M  END
>  <ID>  (23) 
4000105

>  <RB>  (23) 
2

>  <clogP>  (23) 
2.818000000000000e+000

>  <Supplier>  (23) 
ChemBridge

>  <tPSA>  (23) 
2.995999999999999e+001

>  <Hacc>  (23) 
2

>  <Hdon>  (23) 
0

>  <Name>  (23) 
(3-chlorophenyl)(pyridin-4-yl)methanone

>  <logSw>  (23) 
-2.281000000000000e+000

>  <Library>  (23) 
ExpressPick

$$$$
4000108
     RDKit          2D

 18 19  0  0  0  0  0  0  0  0999 V2000
    2.1292   -0.4875    0.0000 C   0  0  0  0  0  0  0  0  0  0  0  0
    2.8417   -0.8917    0.0000 C   0  0  0  0  0  0  0  0  0  0  0  0
    2.1250    0.3333    0.0000 O   0  0  0  0  0  0  0  0  0  0  0  0
   -0.0125   -1.7292    0.0000 N   0  0  0  0  0  0  0  0  0  0  0  0
    1.4167   -0.9042    0.0000 C   0  0  0  0  0  0  0  0  0  0  0  0
    3.5500   -0.4792    0.0000 C   0  0  0  0  0  0  0  0  0  0  0  0
    2.8417   -1.7167    0.0000 C   0  0  0  0  0  0  0  0  0  0  0  0
    5.7042   -1.7042    0.0000 C   0  0  0  0  0  0  0  0  0  0  0  0
    4.2750   -1.7125    0.0000 C   0  0  0  0  0  0  0  0  0  0  0  0
    4.2667   -0.8792    0.0000 C   0  0  0  0  0  0  0  0  0  0  0  0
    3.5542   -2.1292    0.0000 C   0  0  0  0  0  0  0  0  0  0  0  0
    4.9917   -2.1250    0.0000 O   0  0  0  0  0  0  0  0  0  0  0  0
    6.4167   -2.1167    0.0000 O   0  0  0  0  0  0  0  0  0  0  0  0
   -0.0125   -0.9042    0.0000 C   0  0  0  0  0  0  0  0  0  0  0  0
    0.7000   -2.1417    0.0000 C   0  0  0  0  0  0  0  0  0  0  0  0
    0.7000   -0.4917    0.0000 C   0  0  0  0  0  0  0  0  0  0  0  0
    1.4167   -1.7292    0.0000 C   0  0  0  0  0  0  0  0  0  0  0  0
    7.1292   -1.7042    0.0000 C   0  0  0  0  0  0  0  0  0  0  0  0
  2  1  1  0
  3  1  2  0
  4 15  2  0
  5  1  1  0
  6  2  2  0
  7  2  1  0
  8 12  1  0
  9 11  1  0
 10  6  1  0
 11  7  2  0
 12  9  1  0
 13  8  1  0
 14 16  2  0
 15 17  1  0
 16  5  1  0
 17  5  2  0
 18 13  1  0
 14  4  1  0
 10  9  2  0
M  END
>  <ID>  (24) 
4000108

>  <RB>  (24) 
5

>  <clogP>  (24) 
1.529000000000000e+000

>  <Supplier>  (24) 
ChemBridge

>  <tPSA>  (24) 
4.842000000000000e+001

>  <Hacc>  (24) 
4

>  <Hdon>  (24) 
0

>  <Name>  (24) 
[4-(methoxymethoxy)phenyl](pyridin-4-yl)methanone

>  <logSw>  (24) 
-2.281000000000000e+000

>  <Library>  (24) 
ExpressPick

$$$$
4000141
     RDKit          2D

 12 12  0  0  0  0  0  0  0  0999 V2000
    1.8375   -0.6042    0.0000 N   0  0  0  0  0  0  0  0  0  0  0  0
    2.5542   -0.1917    0.0000 N   0  0  0  0  0  0  0  0  0  0  0  0
    2.5542    0.6375    0.0000 C   0  0  0  0  0  0  0  0  0  0  0  0
    1.8375    1.0500    0.0000 C   0  0  0  0  0  0  0  0  0  0  0  0
    1.1250   -0.1917    0.0000 C   0  0  0  0  0  0  0  0  0  0  0  0
    1.1250    0.6375    0.0000 C   0  0  0  0  0  0  0  0  0  0  0  0
   -1.0333   -0.6292    0.0000 C   0  0  0  0  0  0  0  0  0  0  0  0
    3.2750    1.0583    0.0000 O   0  0  0  0  0  0  0  0  0  0  0  0
   -1.0208   -1.4542    0.0000 O   0  0  0  0  0  0  0  0  0  0  0  0
   -0.3208   -0.2042    0.0000 C   0  0  0  0  0  0  0  0  0  0  0  0
    0.4042   -0.6167    0.0000 C   0  0  0  0  0  0  0  0  0  0  0  0
   -1.7583   -0.2167    0.0000 O   0  0  0  0  0  0  0  0  0  0  0  0
  2  1  1  0
  3  2  1  0
  4  6  2  0
  5  1  2  0
  6  5  1  0
  7 10  1  0
  8  3  2  0
  9  7  2  0
 10 11  1  0
 11  5  1  0
 12  7  1  0
  3  4  1  0
M  END
>  <ID>  (25) 
4000141

>  <RB>  (25) 
3

>  <clogP>  (25) 
-8.780000000000001e-001

>  <Supplier>  (25) 
ChemBridge

>  <tPSA>  (25) 
8.305000000000004e+001

>  <Hacc>  (25) 
4

>  <Hdon>  (25) 
2

>  <Name>  (25) 
3-(6-oxo-1,6-dihydropyridazin-3-yl)propanoic acid

>  <logSw>  (25) 
-9.880000000000002e-001

>  <Library>  (25) 
ExpressPick

$$$$
4000235
     RDKit          2D

 14 15  0  0  0  0  0  0  0  0999 V2000
    3.3000   -1.9417    0.0000 N   0  0  0  0  0  0  0  0  0  0  0  0
    2.5792   -2.3542    0.0000 N   0  0  0  0  0  0  0  0  0  0  0  0
    1.8667   -1.9417    0.0000 C   0  0  0  0  0  0  0  0  0  0  0  0
    3.3000   -1.1167    0.0000 C   0  0  0  0  0  0  0  0  0  0  0  0
    1.1542   -2.3542    0.0000 N   0  0  0  0  0  0  0  0  0  0  0  0
    2.5792   -0.7042    0.0000 C   0  0  0  0  0  0  0  0  0  0  0  0
    4.0167   -0.7042    0.0000 C   0  0  0  0  0  0  0  0  0  0  0  0
    1.8667   -1.1167    0.0000 C   0  0  0  0  0  0  0  0  0  0  0  0
    0.3292   -2.3542    0.0000 N   0  0  0  0  0  0  0  0  0  0  0  0
    4.7292   -1.1167    0.0000 C   0  0  0  0  0  0  0  0  0  0  0  0
    4.0167    0.1250    0.0000 C   0  0  0  0  0  0  0  0  0  0  0  0
    5.4417   -0.7042    0.0000 C   0  0  0  0  0  0  0  0  0  0  0  0
    4.7292    0.5375    0.0000 C   0  0  0  0  0  0  0  0  0  0  0  0
    5.4417    0.1250    0.0000 C   0  0  0  0  0  0  0  0  0  0  0  0
  2  1  2  0
  3  2  1  0
  4  1  1  0
  5  3  1  0
  6  4  2  0
  7  4  1  0
  8  6  1  0
  9  5  1  0
 10  7  2  0
 11  7  1  0
 12 10  1  0
 13 11  2  0
 14 13  1  0
  8  3  2  0
 12 14  2  0
M  END
>  <ID>  (26) 
4000235

>  <RB>  (26) 
2

>  <clogP>  (26) 
1.947000000000000e+000

>  <Supplier>  (26) 
ChemBridge

>  <tPSA>  (26) 
6.383000000000000e+001

>  <Hacc>  (26) 
2

>  <Hdon>  (26) 
2

>  <Name>  (26) 
3-hydrazino-6-phenylpyridazine

>  <logSw>  (26) 
-6.250000000000000e-001

>  <Library>  (26) 
ExpressPick

$$$$
4000237
     RDKit          2D

 15 16  0  0  0  0  0  0  0  0999 V2000
    3.3000   -1.9417    0.0000 N   0  0  0  0  0  0  0  0  0  0  0  0
    2.5792   -2.3542    0.0000 N   0  0  0  0  0  0  0  0  0  0  0  0
    1.8667   -1.9417    0.0000 C   0  0  0  0  0  0  0  0  0  0  0  0
    3.3000   -1.1167    0.0000 C   0  0  0  0  0  0  0  0  0  0  0  0
    4.0167   -0.7042    0.0000 C   0  0  0  0  0  0  0  0  0  0  0  0
    1.1542   -2.3542    0.0000 N   0  0  0  0  0  0  0  0  0  0  0  0
    2.5792   -0.7042    0.0000 C   0  0  0  0  0  0  0  0  0  0  0  0
    4.0167    0.1250    0.0000 C   0  0  0  0  0  0  0  0  0  0  0  0
    4.7292   -1.1167    0.0000 C   0  0  0  0  0  0  0  0  0  0  0  0
    1.8667   -1.1167    0.0000 C   0  0  0  0  0  0  0  0  0  0  0  0
    0.3292   -2.3542    0.0000 N   0  0  0  0  0  0  0  0  0  0  0  0
    5.4417   -0.7042    0.0000 C   0  0  0  0  0  0  0  0  0  0  0  0
    4.7292    0.5375    0.0000 C   0  0  0  0  0  0  0  0  0  0  0  0
    5.4417    0.1250    0.0000 C   0  0  0  0  0  0  0  0  0  0  0  0
    6.1542    0.5458    0.0000 C   0  0  0  0  0  0  0  0  0  0  0  0
  2  1  2  0
  3  2  1  0
  4  1  1  0
  5  4  1  0
  6  3  1  0
  7  4  2  0
  8  5  2  0
  9  5  1  0
 10  7  1  0
 11  6  1  0
 12  9  2  0
 13  8  1  0
 14 12  1  0
 15 14  1  0
  3 10  2  0
 14 13  2  0
M  END
>  <ID>  (27) 
4000237

>  <RB>  (27) 
2

>  <clogP>  (27) 
2.446000000000000e+000

>  <Supplier>  (27) 
ChemBridge

>  <tPSA>  (27) 
6.383000000000000e+001

>  <Hacc>  (27) 
2

>  <Hdon>  (27) 
2

>  <Name>  (27) 
3-hydrazino-6-(4-methylphenyl)pyridazine

>  <logSw>  (27) 
-2.222000000000000e+000

>  <Library>  (27) 
ExpressPick

$$$$
4000320
     RDKit          2D

 15 16  0  0  0  0  0  0  0  0999 V2000
   -0.3458   -0.2792    0.0000 N   0  0  0  0  0  0  0  0  0  0  0  0
   -0.3458   -1.1042    0.0000 C   0  0  0  0  0  0  0  0  0  0  0  0
    0.3542   -1.5167    0.0000 C   0  0  0  0  0  0  0  0  0  0  0  0
   -1.0583    0.1333    0.0000 C   0  0  0  0  0  0  0  0  0  0  0  0
    0.3667    0.1333    0.0000 C   0  0  0  0  0  0  0  0  0  0  0  0
   -0.3458    1.3708    0.0000 C   0  0  0  0  0  0  0  0  0  0  0  0
    0.3667    0.9583    0.0000 C   0  0  0  0  0  0  0  0  0  0  0  0
   -1.0583    0.9583    0.0000 C   0  0  0  0  0  0  0  0  0  0  0  0
   -0.3458    2.1958    0.0000 O   0  0  0  0  0  0  0  0  0  0  0  0
    0.3917   -2.3417    0.0000 C   0  0  0  0  0  0  0  0  0  0  0  0
    1.1000   -2.7417    0.0000 O   0  0  0  0  0  0  0  0  0  0  0  0
   -1.0583   -1.5292    0.0000 C   0  0  0  0  0  0  0  0  0  0  0  0
   -1.0583   -2.3542    0.0000 C   0  0  0  0  0  0  0  0  0  0  0  0
   -0.3250   -2.7667    0.0000 C   0  0  0  0  0  0  0  0  0  0  0  0
    1.7792   -2.3167    0.0000 C   0  0  0  0  0  0  0  0  0  0  0  0
  2  1  1  0
  3  2  2  0
  4  1  1  0
  5  1  1  0
  6  7  1  0
  7  5  1  0
  8  4  1  0
  9  6  2  0
 10  3  1  0
 11 10  1  0
 12  2  1  0
 13 12  2  0
 14 13  1  0
 15 11  1  0
  6  8  1  0
 10 14  2  0
M  END
>  <ID>  (28) 
4000320

>  <RB>  (28) 
1

>  <clogP>  (28) 
1.920000000000000e+000

>  <Supplier>  (28) 
ChemBridge

>  <tPSA>  (28) 
2.954000000000000e+001

>  <Hacc>  (28) 
2

>  <Hdon>  (28) 
0

>  <Name>  (28) 
1-(3-methoxyphenyl)piperidin-4-one

>  <logSw>  (28) 
-2.033000000000000e+000

>  <Library>  (28) 
ExpressPick

$$$$
4000323
     RDKit          2D

 14 15  0  0  0  0  0  0  0  0999 V2000
   -0.3458   -0.2792    0.0000 N   0  0  0  0  0  0  0  0  0  0  0  0
   -0.3458   -1.1042    0.0000 C   0  0  0  0  0  0  0  0  0  0  0  0
    0.3667    0.1333    0.0000 C   0  0  0  0  0  0  0  0  0  0  0  0
   -1.0583    0.1333    0.0000 C   0  0  0  0  0  0  0  0  0  0  0  0
   -0.3458    1.3708    0.0000 C   0  0  0  0  0  0  0  0  0  0  0  0
   -1.0583    0.9583    0.0000 C   0  0  0  0  0  0  0  0  0  0  0  0
    0.3667    0.9583    0.0000 C   0  0  0  0  0  0  0  0  0  0  0  0
   -0.3458    2.1958    0.0000 O   0  0  0  0  0  0  0  0  0  0  0  0
    0.3667   -1.5250    0.0000 C   0  0  0  0  0  0  0  0  0  0  0  0
   -1.0458   -1.5167    0.0000 C   0  0  0  0  0  0  0  0  0  0  0  0
   -0.3708   -2.7625    0.0000 C   0  0  0  0  0  0  0  0  0  0  0  0
   -1.0833   -2.3375    0.0000 C   0  0  0  0  0  0  0  0  0  0  0  0
    0.3667   -2.3542    0.0000 C   0  0  0  0  0  0  0  0  0  0  0  0
   -0.3875   -3.5667    0.0000 Cl  0  0  0  0  0  0  0  0  0  0  0  0
  2  1  1  0
  3  1  1  0
  4  1  1  0
  5  6  1  0
  6  4  1  0
  7  3  1  0
  8  5  2  0
  9  2  2  0
 10  2  1  0
 11 12  1  0
 12 10  2  0
 13  9  1  0
 14 11  1  0
  5  7  1  0
 13 11  2  0
M  END
>  <ID>  (29) 
4000323

>  <RB>  (29) 
1

>  <clogP>  (29) 
2.783000000000000e+000

>  <Supplier>  (29) 
ChemBridge

>  <tPSA>  (29) 
2.031000000000000e+001

>  <Hacc>  (29) 
1

>  <Hdon>  (29) 
0

>  <Name>  (29) 
1-(4-chlorophenyl)piperidin-4-one

>  <logSw>  (29) 
-2.340000000000000e+000

>  <Library>  (29) 
ExpressPick

$$$$
4000324
     RDKit          2D

 14 15  0  0  0  0  0  0  0  0999 V2000
   -0.3458   -0.2792    0.0000 N   0  0  0  0  0  0  0  0  0  0  0  0
   -0.3458   -1.1042    0.0000 C   0  0  0  0  0  0  0  0  0  0  0  0
    0.3667    0.1333    0.0000 C   0  0  0  0  0  0  0  0  0  0  0  0
   -1.0583    0.1333    0.0000 C   0  0  0  0  0  0  0  0  0  0  0  0
   -0.3458    1.3708    0.0000 C   0  0  0  0  0  0  0  0  0  0  0  0
   -1.0583   -1.5167    0.0000 C   0  0  0  0  0  0  0  0  0  0  0  0
    0.3667    0.9583    0.0000 C   0  0  0  0  0  0  0  0  0  0  0  0
   -1.0583    0.9583    0.0000 C   0  0  0  0  0  0  0  0  0  0  0  0
   -0.3458    2.1958    0.0000 O   0  0  0  0  0  0  0  0  0  0  0  0
   -1.7708   -1.1042    0.0000 F   0  0  0  0  0  0  0  0  0  0  0  0
    0.3667   -1.5167    0.0000 C   0  0  0  0  0  0  0  0  0  0  0  0
   -1.0583   -2.3417    0.0000 C   0  0  0  0  0  0  0  0  0  0  0  0
    0.3667   -2.3417    0.0000 C   0  0  0  0  0  0  0  0  0  0  0  0
   -0.3458   -2.7542    0.0000 C   0  0  0  0  0  0  0  0  0  0  0  0
  2  1  1  0
  3  1  1  0
  4  1  1  0
  5  8  1  0
  6  2  2  0
  7  3  1  0
  8  4  1  0
  9  5  2  0
 10  6  1  0
 11  2  1  0
 12  6  1  0
 13 11  2  0
 14 13  1  0
  5  7  1  0
 12 14  2  0
M  END
>  <ID>  (30) 
4000324

>  <RB>  (30) 
1

>  <clogP>  (30) 
2.210000000000000e+000

>  <Supplier>  (30) 
ChemBridge

>  <tPSA>  (30) 
2.031000000000000e+001

>  <Hacc>  (30) 
1

>  <Hdon>  (30) 
0

>  <Name>  (30) 
1-(2-fluorophenyl)piperidin-4-one

>  <logSw>  (30) 
-2.047000000000000e+000

>  <Library>  (30) 
ExpressPick

$$$$
4000326
     RDKit          2D

 14 15  0  0  0  0  0  0  0  0999 V2000
   -0.3458   -0.2792    0.0000 N   0  0  0  0  0  0  0  0  0  0  0  0
   -0.3458   -1.1042    0.0000 C   0  0  0  0  0  0  0  0  0  0  0  0
    0.3667    0.1333    0.0000 C   0  0  0  0  0  0  0  0  0  0  0  0
   -1.0583    0.1333    0.0000 C   0  0  0  0  0  0  0  0  0  0  0  0
   -0.3458    1.3708    0.0000 C   0  0  0  0  0  0  0  0  0  0  0  0
   -1.0583    0.9583    0.0000 C   0  0  0  0  0  0  0  0  0  0  0  0
    0.3667    0.9583    0.0000 C   0  0  0  0  0  0  0  0  0  0  0  0
   -0.3458    2.1958    0.0000 O   0  0  0  0  0  0  0  0  0  0  0  0
   -1.0625   -1.5167    0.0000 C   0  0  0  0  0  0  0  0  0  0  0  0
    0.3667   -1.5167    0.0000 C   0  0  0  0  0  0  0  0  0  0  0  0
   -0.3458   -2.7542    0.0000 C   0  0  0  0  0  0  0  0  0  0  0  0
    0.3667   -2.3417    0.0000 C   0  0  0  0  0  0  0  0  0  0  0  0
   -1.0625   -2.3417    0.0000 C   0  0  0  0  0  0  0  0  0  0  0  0
   -0.3458   -3.5792    0.0000 F   0  0  0  0  0  0  0  0  0  0  0  0
  2  1  1  0
  3  1  1  0
  4  1  1  0
  5  6  1  0
  6  4  1  0
  7  3  1  0
  8  5  2  0
  9  2  2  0
 10  2  1  0
 11 12  1  0
 12 10  2  0
 13  9  1  0
 14 11  1  0
  5  7  1  0
 11 13  2  0
M  END
>  <ID>  (31) 
4000326

>  <RB>  (31) 
1

>  <clogP>  (31) 
2.210000000000000e+000

>  <Supplier>  (31) 
ChemBridge

>  <tPSA>  (31) 
2.031000000000000e+001

>  <Hacc>  (31) 
1

>  <Hdon>  (31) 
0

>  <Name>  (31) 
1-(4-fluorophenyl)piperidin-4-one

>  <logSw>  (31) 
-2.047000000000000e+000

>  <Library>  (31) 
ExpressPick

$$$$
4000342
     RDKit          2D

 15 16  0  0  0  0  0  0  0  0999 V2000
   -0.3458   -0.2792    0.0000 N   0  0  0  0  0  0  0  0  0  0  0  0
   -0.3458   -1.1042    0.0000 C   0  0  0  0  0  0  0  0  0  0  0  0
    0.3750   -1.5167    0.0000 C   0  0  0  0  0  0  0  0  0  0  0  0
   -1.0583    0.1333    0.0000 C   0  0  0  0  0  0  0  0  0  0  0  0
    0.3667    0.1333    0.0000 C   0  0  0  0  0  0  0  0  0  0  0  0
   -0.3458    1.3708    0.0000 C   0  0  0  0  0  0  0  0  0  0  0  0
    0.3667   -2.3417    0.0000 C   0  0  0  0  0  0  0  0  0  0  0  0
   -1.0583    0.9583    0.0000 C   0  0  0  0  0  0  0  0  0  0  0  0
    0.3667    0.9583    0.0000 C   0  0  0  0  0  0  0  0  0  0  0  0
   -0.3458    2.1958    0.0000 O   0  0  0  0  0  0  0  0  0  0  0  0
   -1.0583   -1.5167    0.0000 C   0  0  0  0  0  0  0  0  0  0  0  0
    1.0875   -1.1042    0.0000 C   0  0  0  0  0  0  0  0  0  0  0  0
   -1.0583   -2.3375    0.0000 C   0  0  0  0  0  0  0  0  0  0  0  0
   -0.3458   -2.7542    0.0000 C   0  0  0  0  0  0  0  0  0  0  0  0
    1.0875   -2.7542    0.0000 C   0  0  0  0  0  0  0  0  0  0  0  0
  2  1  1  0
  3  2  2  0
  4  1  1  0
  5  1  1  0
  6  9  1  0
  7  3  1  0
  8  4  1  0
  9  5  1  0
 10  6  2  0
 11  2  1  0
 12  3  1  0
 13 11  2  0
 14 13  1  0
 15  7  1  0
  6  8  1  0
  7 14  2  0
M  END
>  <ID>  (32) 
4000342

>  <RB>  (32) 
1

>  <clogP>  (32) 
2.847000000000000e+000

>  <Supplier>  (32) 
ChemBridge

>  <tPSA>  (32) 
2.031000000000000e+001

>  <Hacc>  (32) 
1

>  <Hdon>  (32) 
0

>  <Name>  (32) 
1-(2,3-dimethylphenyl)piperidin-4-one

>  <logSw>  (32) 
-1.967000000000000e+000

>  <Library>  (32) 
ExpressPick

$$$$
4000478
     RDKit          2D

  9  9  0  0  0  0  0  0  0  0999 V2000
    4.6917    0.6333    0.0000 O   0  0  0  0  0  0  0  0  0  0  0  0
   -1.4833    3.0208    0.0000 N   0  0  0  0  0  0  0  0  0  0  0  0
    2.2417    0.8583    0.0000 C   0  0  0  0  0  0  0  0  0  0  0  0
    5.2500   -1.7750    0.0000 C   0  0  0  0  0  0  0  0  0  0  0  0
    0.9792    3.0208    0.0000 C   0  0  0  0  0  0  0  0  0  0  0  0
   -2.7750    0.9583    0.0000 C   0  0  0  0  0  0  0  0  0  0  0  0
    1.2875   -1.3917    0.0000 C   0  0  0  0  0  0  0  0  0  0  0  0
   -5.2500    1.0208    0.0000 C   0  0  0  0  0  0  0  0  0  0  0  0
    3.1125   -3.0042    0.0000 C   0  0  0  0  0  0  0  0  0  0  0  0
  2  5  1  0
  3  1  1  0
  4  1  1  0
  5  3  1  0
  6  2  1  0
  7  3  1  0
  8  6  1  0
  9  4  1  0
  9  7  1  0
M  END
>  <ID>  (33) 
4000478

>  <RB>  (33) 
1

>  <clogP>  (33) 
7.300000000000000e-001

>  <Supplier>  (33) 
ChemBridge

>  <tPSA>  (33) 
2.126000000000000e+001

>  <Hacc>  (33) 
2

>  <Hdon>  (33) 
1

>  <Name>  (33) 
N-(tetrahydrofuran-2-ylmethyl)ethanamine

>  <logSw>  (33) 
1.460000000000000e-001

>  <Library>  (33) 
ExpressPick

>  <stereochemistry>  (33) 
unknown

$$$$
4001108
     RDKit          2D

 15 16  0  0  0  0  0  0  0  0999 V2000
    3.7750   -1.4292    0.0000 N   0  0  0  0  0  0  0  0  0  0  0  0
    2.4042   -1.0167    0.0000 C   0  0  0  0  0  0  0  0  0  0  0  0
    2.9667   -1.6167    0.0000 C   0  0  0  0  0  0  0  0  0  0  0  0
    1.6042   -1.2000    0.0000 C   0  0  0  0  0  0  0  0  0  0  0  0
    5.3875   -1.0542    0.0000 O   0  0  0  0  0  0  0  0  0  0  0  0
    4.0167   -0.6417    0.0000 C   0  0  0  0  0  0  0  0  0  0  0  0
    4.3417   -2.0375    0.0000 C   0  0  0  0  0  0  0  0  0  0  0  0
    0.5542   -2.1917    0.0000 O   0  0  0  0  0  0  0  0  0  0  0  0
    1.3667   -2.0000    0.0000 C   0  0  0  0  0  0  0  0  0  0  0  0
    2.6500   -0.2167    0.0000 C   0  0  0  0  0  0  0  0  0  0  0  0
    5.1417   -1.8500    0.0000 C   0  0  0  0  0  0  0  0  0  0  0  0
    4.8167   -0.4542    0.0000 C   0  0  0  0  0  0  0  0  0  0  0  0
    1.0417   -0.5917    0.0000 C   0  0  0  0  0  0  0  0  0  0  0  0
    2.0792    0.3833    0.0000 C   0  0  0  0  0  0  0  0  0  0  0  0
    1.2792    0.1958    0.0000 C   0  0  0  0  0  0  0  0  0  0  0  0
  2  3  1  0
  3  1  1  0
  4  2  2  0
  5 11  1  0
  6  1  1  0
  7  1  1  0
  8  9  1  0
  9  4  1  0
 10  2  1  0
 11  7  1  0
 12  6  1  0
 13  4  1  0
 14 10  2  0
 15 14  1  0
  5 12  1  0
 13 15  2  0
M  END
>  <ID>  (34) 
4001108

>  <RB>  (34) 
3

>  <clogP>  (34) 
8.010000000000002e-001

>  <Supplier>  (34) 
ChemBridge

>  <tPSA>  (34) 
3.270000000000000e+001

>  <Hacc>  (34) 
3

>  <Hdon>  (34) 
1

>  <Name>  (34) 
[2-(4-morpholinylmethyl)phenyl]methanol hydrochloride

>  <logSw>  (34) 
2.400000000000000e-001

>  <Library>  (34) 
ExpressPick

$$$$
4001112
     RDKit          2D

 15 16  0  0  0  0  0  0  0  0999 V2000
    3.9750   -1.4917    0.0000 N   0  0  0  0  0  0  0  0  0  0  0  0
    2.5917   -1.1292    0.0000 C   0  0  0  0  0  0  0  0  0  0  0  0
    3.1792   -1.7042    0.0000 C   0  0  0  0  0  0  0  0  0  0  0  0
    1.8000   -1.3500    0.0000 C   0  0  0  0  0  0  0  0  0  0  0  0
    4.5667   -2.0667    0.0000 C   0  0  0  0  0  0  0  0  0  0  0  0
    4.1792   -0.6917    0.0000 C   0  0  0  0  0  0  0  0  0  0  0  0
    0.7917   -2.3792    0.0000 O   0  0  0  0  0  0  0  0  0  0  0  0
    1.5917   -2.1542    0.0000 C   0  0  0  0  0  0  0  0  0  0  0  0
    2.8042   -0.3292    0.0000 C   0  0  0  0  0  0  0  0  0  0  0  0
    1.2042   -0.7667    0.0000 C   0  0  0  0  0  0  0  0  0  0  0  0
    4.9792   -0.4667    0.0000 C   0  0  0  0  0  0  0  0  0  0  0  0
    5.3625   -1.8542    0.0000 C   0  0  0  0  0  0  0  0  0  0  0  0
    2.2125    0.2500    0.0000 C   0  0  0  0  0  0  0  0  0  0  0  0
    1.4167    0.0333    0.0000 C   0  0  0  0  0  0  0  0  0  0  0  0
    5.5667   -1.0500    0.0000 C   0  0  0  0  0  0  0  0  0  0  0  0
  2  3  1  0
  3  1  1  0
  4  2  2  0
  5  1  1  0
  6  1  1  0
  7  8  1  0
  8  4  1  0
  9  2  1  0
 10  4  1  0
 11  6  1  0
 12  5  1  0
 13  9  2  0
 14 13  1  0
 15 11  1  0
 12 15  1  0
 10 14  2  0
M  END
>  <ID>  (35) 
4001112

>  <RB>  (35) 
3

>  <clogP>  (35) 
2.081000000000000e+000

>  <Supplier>  (35) 
ChemBridge

>  <tPSA>  (35) 
2.347000000000000e+001

>  <Hacc>  (35) 
2

>  <Hdon>  (35) 
1

>  <Name>  (35) 
[2-(1-piperidinylmethyl)phenyl]methanol hydrochloride

>  <logSw>  (35) 
-3.140000000000000e-001

>  <Library>  (35) 
ExpressPick

$$$$
4001115
     RDKit          2D

 16 17  0  0  0  0  0  0  0  0999 V2000
    3.6417   -1.1917    0.0000 N   0  0  0  0  0  0  0  0  0  0  0  0
    2.3542   -0.5792    0.0000 C   0  0  0  0  0  0  0  0  0  0  0  0
    2.8167   -1.2542    0.0000 C   0  0  0  0  0  0  0  0  0  0  0  0
    1.5292   -0.6417    0.0000 C   0  0  0  0  0  0  0  0  0  0  0  0
    4.0000   -0.4500    0.0000 C   0  0  0  0  0  0  0  0  0  0  0  0
    4.0042   -1.9417    0.0000 C   0  0  0  0  0  0  0  0  0  0  0  0
    0.3500   -1.4667    0.0000 O   0  0  0  0  0  0  0  0  0  0  0  0
    1.1792   -1.4000    0.0000 C   0  0  0  0  0  0  0  0  0  0  0  0
    2.7125    0.1708    0.0000 C   0  0  0  0  0  0  0  0  0  0  0  0
    1.0625    0.0458    0.0000 C   0  0  0  0  0  0  0  0  0  0  0  0
    4.8167   -2.1125    0.0000 C   0  0  0  0  0  0  0  0  0  0  0  0
    4.8042   -0.2625    0.0000 C   0  0  0  0  0  0  0  0  0  0  0  0
    2.2417    0.8500    0.0000 C   0  0  0  0  0  0  0  0  0  0  0  0
    1.4167    0.7833    0.0000 C   0  0  0  0  0  0  0  0  0  0  0  0
    5.4542   -0.7750    0.0000 C   0  0  0  0  0  0  0  0  0  0  0  0
    5.4417   -1.6000    0.0000 C   0  0  0  0  0  0  0  0  0  0  0  0
  2  3  1  0
  3  1  1  0
  4  2  2  0
  5  1  1  0
  6  1  1  0
  7  8  1  0
  8  4  1  0
  9  2  1  0
 10  4  1  0
 11  6  1  0
 12  5  1  0
 13  9  2  0
 14 13  1  0
 15 12  1  0
 16 11  1  0
 16 15  1  0
 10 14  2  0
M  END
>  <ID>  (36) 
4001115

>  <RB>  (36) 
3

>  <clogP>  (36) 
2.640000000000000e+000

>  <Supplier>  (36) 
ChemBridge

>  <tPSA>  (36) 
2.347000000000000e+001

>  <Hacc>  (36) 
2

>  <Hdon>  (36) 
1

>  <Name>  (36) 
[2-(azepan-1-ylmethyl)phenyl]methanol

>  <logSw>  (36) 
-2.082000000000000e+000

>  <Library>  (36) 
ExpressPick

$$$$
4001118
     RDKit          2D

 16 17  0  0  0  0  0  0  0  0999 V2000
    3.7167   -0.9292    0.0000 N   0  0  0  0  0  0  0  0  0  0  0  0
    2.3917   -0.4167    0.0000 C   0  0  0  0  0  0  0  0  0  0  0  0
    2.9042   -1.0542    0.0000 C   0  0  0  0  0  0  0  0  0  0  0  0
    1.5792   -0.5375    0.0000 C   0  0  0  0  0  0  0  0  0  0  0  0
    4.0250   -0.1667    0.0000 C   0  0  0  0  0  0  0  0  0  0  0  0
    4.2417   -1.5792    0.0000 C   0  0  0  0  0  0  0  0  0  0  0  0
    5.0542   -1.4542    0.0000 C   0  0  0  0  0  0  0  0  0  0  0  0
    4.8417   -0.0292    0.0000 C   0  0  0  0  0  0  0  0  0  0  0  0
    5.3542   -0.6875    0.0000 C   0  0  0  0  0  0  0  0  0  0  0  0
    0.4542   -1.4417    0.0000 O   0  0  0  0  0  0  0  0  0  0  0  0
    1.2792   -1.3167    0.0000 C   0  0  0  0  0  0  0  0  0  0  0  0
    2.6917    0.3583    0.0000 C   0  0  0  0  0  0  0  0  0  0  0  0
    1.0542    0.1083    0.0000 C   0  0  0  0  0  0  0  0  0  0  0  0
    6.1792   -0.5542    0.0000 C   0  0  0  0  0  0  0  0  0  0  0  0
    2.1750    1.0000    0.0000 C   0  0  0  0  0  0  0  0  0  0  0  0
    1.3542    0.8750    0.0000 C   0  0  0  0  0  0  0  0  0  0  0  0
  2  3  1  0
  3  1  1  0
  4  2  2  0
  5  1  1  0
  6  1  1  0
  7  6  1  0
  8  5  1  0
  9  7  1  0
 10 11  1  0
 11  4  1  0
 12  2  1  0
 13  4  1  0
 14  9  1  0
 15 12  2  0
 16 15  1  0
  8  9  1  0
 13 16  2  0
M  END
>  <ID>  (37) 
4001118

>  <RB>  (37) 
3

>  <clogP>  (37) 
2.600000000000000e+000

>  <Supplier>  (37) 
ChemBridge

>  <tPSA>  (37) 
2.347000000000000e+001

>  <Hacc>  (37) 
2

>  <Hdon>  (37) 
1

>  <Name>  (37) 
{2-[(4-methyl-1-piperidinyl)methyl]phenyl}methanol hydrochloride

>  <logSw>  (37) 
-2.013000000000000e+000

>  <Library>  (37) 
ExpressPick

$$$$
4001120
     RDKit          2D

 14 15  0  0  0  0  0  0  0  0999 V2000
    4.2292   -1.5125    0.0000 N   0  0  0  0  0  0  0  0  0  0  0  0
    2.8667   -1.0792    0.0000 C   0  0  0  0  0  0  0  0  0  0  0  0
    3.4250   -1.6875    0.0000 C   0  0  0  0  0  0  0  0  0  0  0  0
    2.0625   -1.2542    0.0000 C   0  0  0  0  0  0  0  0  0  0  0  0
    4.4792   -0.7250    0.0000 C   0  0  0  0  0  0  0  0  0  0  0  0
    4.9042   -1.9917    0.0000 C   0  0  0  0  0  0  0  0  0  0  0  0
    1.0042   -2.2292    0.0000 O   0  0  0  0  0  0  0  0  0  0  0  0
    1.8167   -2.0542    0.0000 C   0  0  0  0  0  0  0  0  0  0  0  0
    3.1167   -0.2917    0.0000 C   0  0  0  0  0  0  0  0  0  0  0  0
    1.5042   -0.6417    0.0000 C   0  0  0  0  0  0  0  0  0  0  0  0
    5.5625   -1.5042    0.0000 C   0  0  0  0  0  0  0  0  0  0  0  0
    5.3125   -0.7167    0.0000 C   0  0  0  0  0  0  0  0  0  0  0  0
    2.5542    0.3208    0.0000 C   0  0  0  0  0  0  0  0  0  0  0  0
    1.7542    0.1458    0.0000 C   0  0  0  0  0  0  0  0  0  0  0  0
  2  3  1  0
  3  1  1  0
  4  2  2  0
  5  1  1  0
  6  1  1  0
  7  8  1  0
  8  4  1  0
  9  2  1  0
 10  4  1  0
 11  6  1  0
 12  5  1  0
 13  9  2  0
 14 13  1  0
 12 11  1  0
 14 10  2  0
M  END
>  <ID>  (38) 
4001120

>  <RB>  (38) 
3

>  <clogP>  (38) 
1.520000000000000e+000

>  <Supplier>  (38) 
ChemBridge

>  <tPSA>  (38) 
2.347000000000000e+001

>  <Hacc>  (38) 
2

>  <Hdon>  (38) 
1

>  <Name>  (38) 
[2-(pyrrolidin-1-ylmethyl)phenyl]methanol

>  <logSw>  (38) 
-1.039000000000000e+000

>  <Library>  (38) 
ExpressPick

$$$$
4001148
     RDKit          2D

 11 11  0  0  0  0  0  0  0  0999 V2000
    3.5125   -0.7042    0.0000 N   0  0  0  0  0  0  0  0  0  0  0  0
    4.6792   -1.8667    0.0000 O   0  0  0  0  0  0  0  0  0  0  0  0
    2.9375   -0.1250    0.0000 C   0  0  0  0  0  0  0  0  0  0  0  0
    4.3042   -0.4917    0.0000 C   0  0  0  0  0  0  0  0  0  0  0  0
    3.2917   -1.5042    0.0000 C   0  0  0  0  0  0  0  0  0  0  0  0
    0.2042    0.6583    0.0000 O   0  0  0  0  0  0  0  0  0  0  0  0
    3.8750   -2.0875    0.0000 C   0  0  0  0  0  0  0  0  0  0  0  0
    4.8917   -1.0792    0.0000 C   0  0  0  0  0  0  0  0  0  0  0  0
    0.7792    0.0625    0.0000 C   0  0  0  0  0  0  0  0  0  0  0  0
    2.1417   -0.3292    0.0000 C   0  0  0  0  0  0  0  0  0  0  0  0
    1.5667    0.2625    0.0000 C   0  0  0  0  0  0  0  0  0  0  0  0
  2  7  1  0
  3  1  1  0
  4  1  1  0
  5  1  1  0
  6  9  1  0
  7  5  1  0
  8  4  1  0
  9 11  1  0
 10  3  1  0
 11 10  1  0
  2  8  1  0
M  END
>  <ID>  (39) 
4001148

>  <RB>  (39) 
4

>  <clogP>  (39) 
-2.330000000000000e-001

>  <Supplier>  (39) 
ChemBridge

>  <tPSA>  (39) 
3.270000000000000e+001

>  <Hacc>  (39) 
3

>  <Hdon>  (39) 
1

>  <Name>  (39) 
4-morpholin-4-ylbutan-1-ol

>  <logSw>  (39) 
-8.880000000000002e-001

>  <Library>  (39) 
ExpressPick

$$$$
4001285
     RDKit          2D

 14 15  0  0  0  0  0  0  0  0999 V2000
    2.7042   -0.1792    0.0000 C   0  0  0  0  0  0  0  0  0  0  0  0
    1.9375   -2.1042    0.0000 N   0  0  0  0  0  0  0  0  0  0  0  0
    4.7792   -0.3542    0.0000 N   0  0  0  0  0  0  0  0  0  0  0  0
    1.6042    1.5708    0.0000 C   0  0  0  0  0  0  0  0  0  0  0  0
    5.2500   -2.3375    0.0000 C   0  0  0  0  0  0  0  0  0  0  0  0
    3.5167   -3.4042    0.0000 C   0  0  0  0  0  0  0  0  0  0  0  0
   -1.1208    1.5708    0.0000 C   0  0  0  0  0  0  0  0  0  0  0  0
    2.6292    3.4208    0.0000 O   0  0  0  0  0  0  0  0  0  0  0  0
   -0.1000   -2.6167    0.0000 C   0  0  0  0  0  0  0  0  0  0  0  0
   -2.1458    3.3708    0.0000 C   0  0  0  0  0  0  0  0  0  0  0  0
   -2.1708   -0.2042    0.0000 C   0  0  0  0  0  0  0  0  0  0  0  0
   -4.2333   -0.2042    0.0000 C   0  0  0  0  0  0  0  0  0  0  0  0
   -4.2083    3.4000    0.0000 C   0  0  0  0  0  0  0  0  0  0  0  0
   -5.2500    1.5708    0.0000 C   0  0  0  0  0  0  0  0  0  0  0  0
  2  1  1  0
  3  1  2  0
  4  1  1  0
  5  3  1  0
  6  2  1  0
  7  4  1  0
  8  4  1  0
  9  2  1  0
 10  7  2  0
 11  7  1  0
 12 11  2  0
 13 10  1  0
 14 12  1  0
  5  6  2  0
 13 14  2  0
M  END
>  <ID>  (40) 
4001285

>  <RB>  (40) 
2

>  <clogP>  (40) 
3.000000000000000e-001

>  <Supplier>  (40) 
ChemBridge

>  <tPSA>  (40) 
3.805000000000000e+001

>  <Hacc>  (40) 
2

>  <Hdon>  (40) 
1

>  <Name>  (40) 
(1-methyl-1H-imidazol-2-yl)(phenyl)methanol

>  <logSw>  (40) 
-1.704000000000000e+000

>  <Library>  (40) 
ExpressPick

>  <stereochemistry>  (40) 
unknown

$$$$
4001443
     RDKit          2D

 14 15  0  0  0  0  0  0  0  0999 V2000
    1.3000   -0.1667    0.0000 C   0  0  0  0  0  0  0  0  0  0  0  0
    3.1542   -0.3667    0.0000 O   0  0  0  0  0  0  0  0  0  0  0  0
    0.5292   -1.8542    0.0000 C   0  0  0  0  0  0  0  0  0  0  0  0
    0.3542    1.4625    0.0000 C   0  0  0  0  0  0  0  0  0  0  0  0
    3.5000   -2.2292    0.0000 C   0  0  0  0  0  0  0  0  0  0  0  0
    1.8667   -3.1167    0.0000 C   0  0  0  0  0  0  0  0  0  0  0  0
   -1.5000    1.4625    0.0000 C   0  0  0  0  0  0  0  0  0  0  0  0
   -4.2958    3.1208    0.0000 N   0  0  0  0  0  0  0  0  0  0  0  0
    1.2875    3.0958    0.0000 O   0  0  0  0  0  0  0  0  0  0  0  0
   -2.4333    3.1083    0.0000 C   0  0  0  0  0  0  0  0  0  0  0  0
    5.2500   -3.0000    0.0000 C   0  0  0  0  0  0  0  0  0  0  0  0
   -2.4625   -0.1292    0.0000 C   0  0  0  0  0  0  0  0  0  0  0  0
   -5.2500    1.5125    0.0000 C   0  0  0  0  0  0  0  0  0  0  0  0
   -4.3208   -0.1167    0.0000 C   0  0  0  0  0  0  0  0  0  0  0  0
  2  1  1  0
  3  1  2  0
  4  1  1  0
  5  2  1  0
  6  3  1  0
  7  4  1  0
  8 10  2  0
  9  4  1  0
 10  7  1  0
 11  5  1  0
 12  7  2  0
 13 14  2  0
 14 12  1  0
  5  6  2  0
 13  8  1  0
M  END
>  <ID>  (41) 
4001443

>  <RB>  (41) 
2

>  <clogP>  (41) 
6.300000000000000e-001

>  <Supplier>  (41) 
ChemBridge

>  <tPSA>  (41) 
4.625999999999998e+001

>  <Hacc>  (41) 
3

>  <Hdon>  (41) 
1

>  <Name>  (41) 
(5-methyl-2-furyl)(pyridin-3-yl)methanol

>  <logSw>  (41) 
-5.100000000000000e-001

>  <Library>  (41) 
ExpressPick

>  <stereochemistry>  (41) 
unknown

$$$$
4001454
     RDKit          2D

 13 14  0  0  0  0  0  0  0  0999 V2000
    2.2500   -0.1875    0.0000 C   0  0  0  0  0  0  0  0  0  0  0  0
    1.1042    1.6458    0.0000 C   0  0  0  0  0  0  0  0  0  0  0  0
    1.4500   -2.2042    0.0000 N   0  0  0  0  0  0  0  0  0  0  0  0
    4.4042   -0.3792    0.0000 N   0  0  0  0  0  0  0  0  0  0  0  0
   -1.5833    1.6458    0.0000 C   0  0  0  0  0  0  0  0  0  0  0  0
   -2.8458   -0.0875    0.0000 S   0  0  0  0  0  0  0  0  0  0  0  0
    4.9000   -2.4375    0.0000 C   0  0  0  0  0  0  0  0  0  0  0  0
    3.1000   -3.5667    0.0000 C   0  0  0  0  0  0  0  0  0  0  0  0
   -2.8125    3.3958    0.0000 C   0  0  0  0  0  0  0  0  0  0  0  0
   -4.9083    0.6125    0.0000 C   0  0  0  0  0  0  0  0  0  0  0  0
   -4.8625    2.7708    0.0000 C   0  0  0  0  0  0  0  0  0  0  0  0
    2.1667    3.5708    0.0000 O   0  0  0  0  0  0  0  0  0  0  0  0
   -0.6833   -2.7375    0.0000 C   0  0  0  0  0  0  0  0  0  0  0  0
  2  1  1  0
  3  1  1  0
  4  1  2  0
  5  2  1  0
  6  5  1  0
  7  4  1  0
  8  3  1  0
  9  5  2  0
 10  6  1  0
 11  9  1  0
 12  2  1  0
 13  3  1  0
  7  8  2  0
 10 11  2  0
M  END
>  <ID>  (42) 
4001454

>  <RB>  (42) 
2

>  <clogP>  (42) 
-6.000000000000000e-002

>  <Supplier>  (42) 
ChemBridge

>  <tPSA>  (42) 
3.805000000000000e+001

>  <Hacc>  (42) 
2

>  <Hdon>  (42) 
1

>  <Name>  (42) 
(1-methyl-1H-imidazol-2-yl)(2-thienyl)methanol

>  <logSw>  (42) 
-1.594000000000000e+000

>  <Scheme>  (42) 
413

>  <Library>  (42) 
ExpressPick

>  <stereochemistry>  (42) 
unknown

$$$$
4001464
     RDKit          2D

 15 16  0  0  0  0  0  0  0  0999 V2000
    3.1292   -0.1500    0.0000 C   0  0  0  0  0  0  0  0  0  0  0  0
    2.4792   -1.7542    0.0000 N   0  0  0  0  0  0  0  0  0  0  0  0
    4.8500   -0.3000    0.0000 N   0  0  0  0  0  0  0  0  0  0  0  0
    2.2042    1.3125    0.0000 C   0  0  0  0  0  0  0  0  0  0  0  0
    5.2500   -1.9500    0.0000 C   0  0  0  0  0  0  0  0  0  0  0  0
    3.8000   -2.8500    0.0000 C   0  0  0  0  0  0  0  0  0  0  0  0
   -0.1125    1.3125    0.0000 C   0  0  0  0  0  0  0  0  0  0  0  0
   -0.9458   -0.2000    0.0000 C   0  0  0  0  0  0  0  0  0  0  0  0
   -0.9458    2.7958    0.0000 C   0  0  0  0  0  0  0  0  0  0  0  0
    3.0542    2.8500    0.0000 O   0  0  0  0  0  0  0  0  0  0  0  0
   -3.5125    1.3125    0.0000 C   0  0  0  0  0  0  0  0  0  0  0  0
   -2.6833    2.7958    0.0000 C   0  0  0  0  0  0  0  0  0  0  0  0
   -2.6833   -0.2000    0.0000 C   0  0  0  0  0  0  0  0  0  0  0  0
   -5.2500    1.3125    0.0000 F   0  0  0  0  0  0  0  0  0  0  0  0
    0.7792   -2.1875    0.0000 C   0  0  0  0  0  0  0  0  0  0  0  0
  2  1  1  0
  3  1  2  0
  4  1  1  0
  5  3  1  0
  6  2  1  0
  7  4  1  0
  8  7  2  0
  9  7  1  0
 10  4  1  0
 11 12  1  0
 12  9  2  0
 13  8  1  0
 14 11  1  0
 15  2  1  0
  6  5  2  0
 11 13  2  0
M  END
>  <ID>  (43) 
4001464

>  <RB>  (43) 
2

>  <clogP>  (43) 
4.400000000000001e-001

>  <Supplier>  (43) 
ChemBridge

>  <tPSA>  (43) 
3.805000000000000e+001

>  <Hacc>  (43) 
2

>  <Hdon>  (43) 
1

>  <Name>  (43) 
(4-fluorophenyl)(1-methyl-1H-imidazol-2-yl)methanol

>  <logSw>  (43) 
-2.006000000000000e+000

>  <Scheme>  (43) 
413

>  <Library>  (43) 
ExpressPick

>  <stereochemistry>  (43) 
unknown

$$$$
4001608
     RDKit          2D

 14 15  0  0  0  0  0  0  0  0999 V2000
    1.8625   -1.7000    0.0000 N   0  0  0  0  0  0  0  0  0  0  0  0
    2.5792   -2.9500    0.0000 N   0  0  0  0  0  0  0  0  0  0  0  0
    2.5792   -2.1167    0.0000 C   0  0  0  0  0  0  0  0  0  0  0  0
    1.1500   -2.1167    0.0000 C   0  0  0  0  0  0  0  0  0  0  0  0
    1.1417   -2.9417    0.0000 C   0  0  0  0  0  0  0  0  0  0  0  0
    3.2917   -1.7042    0.0000 C   0  0  0  0  0  0  0  0  0  0  0  0
    4.0042   -2.1167    0.0000 S   0  0  0  0  0  0  0  0  0  0  0  0
    6.1417   -1.6917    0.0000 O   0  0  0  0  0  0  0  0  0  0  0  0
    0.4292   -1.7042    0.0000 C   0  0  0  0  0  0  0  0  0  0  0  0
    0.4292   -3.3625    0.0000 C   0  0  0  0  0  0  0  0  0  0  0  0
    4.7167   -1.7000    0.0000 C   0  0  0  0  0  0  0  0  0  0  0  0
    5.4292   -2.1125    0.0000 C   0  0  0  0  0  0  0  0  0  0  0  0
   -0.2833   -2.1250    0.0000 C   0  0  0  0  0  0  0  0  0  0  0  0
   -0.2833   -2.9500    0.0000 C   0  0  0  0  0  0  0  0  0  0  0  0
  2  3  1  0
  3  1  2  0
  4  1  1  0
  5  4  2  0
  6  3  1  0
  7  6  1  0
  8 12  1  0
  9  4  1  0
 10  5  1  0
 11  7  1  0
 12 11  1  0
 13  9  2  0
 14 13  1  0
  2  5  1  0
 10 14  2  0
M  END
>  <ID>  (44) 
4001608

>  <RB>  (44) 
4

>  <clogP>  (44) 
1.332000000000000e+000

>  <Supplier>  (44) 
ChemBridge

>  <tPSA>  (44) 
4.891000000000000e+001

>  <Hacc>  (44) 
2

>  <Hdon>  (44) 
2

>  <Name>  (44) 
2-[(1H-benzimidazol-2-ylmethyl)thio]ethanol hydrochloride

>  <logSw>  (44) 
-9.770000000000000e-001

>  <Library>  (44) 
ExpressPick

$$$$
4001635
     RDKit          2D

 12 13  0  0  0  0  0  0  0  0999 V2000
    4.3667   -2.8542    0.0000 C   0  0  0  0  0  0  0  0  0  0  0  0
    4.3750   -4.1917    0.0000 N   0  0  0  0  0  0  0  0  0  0  0  0
    3.8792   -3.5250    0.0000 N   0  0  0  0  0  0  0  0  0  0  0  0
    5.1500   -3.1042    0.0000 C   0  0  0  0  0  0  0  0  0  0  0  0
    4.3667   -2.0250    0.0000 C   0  0  0  0  0  0  0  0  0  0  0  0
    5.1500   -3.9292    0.0000 C   0  0  0  0  0  0  0  0  0  0  0  0
    5.0792   -1.6125    0.0000 C   0  0  0  0  0  0  0  0  0  0  0  0
    3.6542   -1.6125    0.0000 C   0  0  0  0  0  0  0  0  0  0  0  0
    4.3667   -0.3667    0.0000 C   0  0  0  0  0  0  0  0  0  0  0  0
    4.3667    0.4583    0.0000 N   0  0  0  0  0  0  0  0  0  0  0  0
    5.0792   -0.7792    0.0000 C   0  0  0  0  0  0  0  0  0  0  0  0
    3.6542   -0.7875    0.0000 C   0  0  0  0  0  0  0  0  0  0  0  0
  2  3  1  0
  3  1  1  0
  4  1  2  0
  5  1  1  0
  6  4  1  0
  7  5  2  0
  8  5  1  0
  9 12  1  0
 10  9  1  0
 11  7  1  0
 12  8  2  0
  2  6  2  0
 11  9  2  0
M  END
>  <ID>  (45) 
4001635

>  <RB>  (45) 
1

>  <clogP>  (45) 
1.282000000000000e+000

>  <Supplier>  (45) 
ChemBridge

>  <tPSA>  (45) 
5.470000000000000e+001

>  <Hacc>  (45) 
1

>  <Hdon>  (45) 
2

>  <Name>  (45) 
4-(1H-pyrazol-5-yl)aniline

>  <logSw>  (45) 
-6.200000000000000e-001

>  <Library>  (45) 
ExpressPick

$$$$
4001636
     RDKit          2D

 12 13  0  0  0  0  0  0  0  0999 V2000
    5.6375   -3.2917    0.0000 C   0  0  0  0  0  0  0  0  0  0  0  0
    5.6417   -4.6292    0.0000 N   0  0  0  0  0  0  0  0  0  0  0  0
    5.1542   -3.9625    0.0000 N   0  0  0  0  0  0  0  0  0  0  0  0
    5.6375   -2.4625    0.0000 C   0  0  0  0  0  0  0  0  0  0  0  0
    6.4167   -3.5417    0.0000 C   0  0  0  0  0  0  0  0  0  0  0  0
    6.3542   -2.0500    0.0000 C   0  0  0  0  0  0  0  0  0  0  0  0
    6.4167   -4.3667    0.0000 C   0  0  0  0  0  0  0  0  0  0  0  0
    6.3542   -1.2167    0.0000 C   0  0  0  0  0  0  0  0  0  0  0  0
    7.0667   -0.8042    0.0000 N   0  0  0  0  0  0  0  0  0  0  0  0
    4.9250   -2.0500    0.0000 C   0  0  0  0  0  0  0  0  0  0  0  0
    4.9250   -1.2250    0.0000 C   0  0  0  0  0  0  0  0  0  0  0  0
    5.6375   -0.8042    0.0000 C   0  0  0  0  0  0  0  0  0  0  0  0
  2  3  1  0
  3  1  1  0
  4  1  1  0
  5  1  2  0
  6  4  2  0
  7  5  1  0
  8  6  1  0
  9  8  1  0
 10  4  1  0
 11 10  2  0
 12 11  1  0
  2  7  2  0
  8 12  2  0
M  END
>  <ID>  (46) 
4001636

>  <RB>  (46) 
1

>  <clogP>  (46) 
1.282000000000000e+000

>  <Supplier>  (46) 
ChemBridge

>  <tPSA>  (46) 
5.470000000000000e+001

>  <Hacc>  (46) 
1

>  <Hdon>  (46) 
2

>  <Name>  (46) 
3-(1H-pyrazol-5-yl)aniline

>  <logSw>  (46) 
3.670000000000000e-001

>  <Library>  (46) 
ExpressPick

$$$$
4001640
     RDKit          2D

 15 17  0  0  0  0  0  0  0  0999 V2000
    0.6917   -0.1667    0.0000 N   0  0  0  0  0  0  0  0  0  0  0  0
    1.1667   -0.8417    0.0000 C   0  0  0  0  0  0  0  0  0  0  0  0
    0.6667   -1.5042    0.0000 N   0  0  0  0  0  0  0  0  0  0  0  0
   -0.0958   -0.4042    0.0000 C   0  0  0  0  0  0  0  0  0  0  0  0
   -0.1083   -1.2292    0.0000 C   0  0  0  0  0  0  0  0  0  0  0  0
   -0.8083    0.0083    0.0000 C   0  0  0  0  0  0  0  0  0  0  0  0
    1.9917   -0.8542    0.0000 C   0  0  0  0  0  0  0  0  0  0  0  0
    2.4042   -1.5667    0.0000 N   0  0  0  0  0  0  0  0  0  0  0  0
   -0.8208   -1.6417    0.0000 C   0  0  0  0  0  0  0  0  0  0  0  0
   -1.5333   -0.4000    0.0000 C   0  0  0  0  0  0  0  0  0  0  0  0
   -1.5333   -1.2292    0.0000 C   0  0  0  0  0  0  0  0  0  0  0  0
   -2.2375    0.0208    0.0000 F   0  0  0  0  0  0  0  0  0  0  0  0
    3.2292   -1.5667    0.0000 C   0  0  0  0  0  0  0  0  0  0  0  0
    2.4042   -0.1417    0.0000 C   0  0  0  0  0  0  0  0  0  0  0  0
    3.2292   -0.1417    0.0000 C   0  0  0  0  0  0  0  0  0  0  0  0
  2  1  2  0
  3  2  1  0
  4  1  1  0
  5  4  2  0
  6  4  1  0
  7  2  1  0
  8  7  1  0
  9  5  1  0
 10  6  2  0
 11 10  1  0
 12 10  1  0
 13  8  1  0
 14  7  1  0
 15 14  1  0
  3  5  1  0
 11  9  2  0
 15 13  1  0
M  END
>  <ID>  (47) 
4001640

>  <RB>  (47) 
1

>  <clogP>  (47) 
1.580000000000000e+000

>  <Supplier>  (47) 
ChemBridge

>  <tPSA>  (47) 
4.071000000000002e+001

>  <Hacc>  (47) 
2

>  <Hdon>  (47) 
2

>  <Name>  (47) 
5-fluoro-2-(2-pyrrolidinyl)-1H-benzimidazole dihydrochloride

>  <logSw>  (47) 
-9.010000000000000e-001

>  <Library>  (47) 
ExpressPick

$$$$
