2000014


 13 13  0  0  0  0  0  0  0  0999 V2000
    6.4000   -4.8417    0.0000 C   0  0  0  0  0  0  0  0  0  0  0  0
    5.6792   -4.4167    0.0000 C   0  0  0  0  0  0  0  0  0  0  0  0
    5.6792   -3.5917    0.0000 C   0  0  0  0  0  0  0  0  0  0  0  0
    6.3917   -5.6667    0.0000 O   0  0  0  0  0  0  0  0  0  0  0  0
    4.9625   -2.3542    0.0000 N   0  0  0  0  0  0  0  0  0  0  0  0
    4.9625   -3.1792    0.0000 C   0  0  0  0  0  0  0  0  0  0  0  0
    7.1125   -4.4292    0.0000 O   0  0  0  0  0  0  0  0  0  0  0  0
    5.6750   -1.9417    0.0000 N   0  0  0  0  0  0  0  0  0  0  0  0
    4.9625   -4.8292    0.0000 C   0  0  0  0  0  0  0  0  0  0  0  0
    4.2500   -4.4167    0.0000 C   0  0  0  0  0  0  0  0  0  0  0  0
    4.2500   -3.6000    0.0000 C   0  0  0  0  0  0  0  0  0  0  0  0
    7.1125   -3.6000    0.0000 C   0  0  0  0  0  0  0  0  0  0  0  0
    7.8250   -3.1875    0.0000 C   0  0  0  0  0  0  0  0  0  0  0  0
  2  1  1  0  0  0  0
  3  2  1  0  0  0  0
  4  1  2  0  0  0  0
  5  6  1  0  0  0  0
  6  3  2  0  0  0  0
  7  1  1  0  0  0  0
  8  5  1  0  0  0  0
  9  2  2  0  0  0  0
 10  9  1  0  0  0  0
 11 10  2  0  0  0  0
 12  7  1  0  0  0  0
 13 12  1  0  0  0  0
  6 11  1  0  0  0  0
M  END
>  <ID> (2000014)
2000014

>  <RB> (2000014)
4

>  <clogP> (2000014)
2.314000000000000e+000

>  <Supplier> (2000014)
ChemBridge

>  <tPSA> (2000014)
6.434999999999999e+001

>  <Hacc> (2000014)
2

>  <Hdon> (2000014)
2

>  <Name> (2000014)
ethyl 3-hydrazinobenzoate hydrochloride

>  <logSw> (2000014)
-2.492000000000000e+000

>  <Library> (2000014)
ExpressPick

$$$$
3000351


 11 12  0  0  0  0  0  0  0  0999 V2000
    1.1667    2.2208    0.0000 N   0  0  0  0  0  0  0  0  0  0  0  0
    2.2875    0.6708    0.0000 C   0  0  0  0  0  0  0  0  0  0  0  0
   -0.6500   -0.2542    0.0000 C   0  0  0  0  0  0  0  0  0  0  0  0
    1.1542   -0.8667    0.0000 S   0  0  0  0  0  0  0  0  0  0  0  0
   -0.6458    1.6125    0.0000 C   0  0  0  0  0  0  0  0  0  0  0  0
   -2.3125   -1.2167    0.0000 C   0  0  0  0  0  0  0  0  0  0  0  0
   -2.3000    2.5833    0.0000 C   0  0  0  0  0  0  0  0  0  0  0  0
    4.1875    0.6708    0.0000 N   0  0  0  0  0  0  0  0  0  0  0  0
   -3.9625    1.6333    0.0000 C   0  0  0  0  0  0  0  0  0  0  0  0
   -3.9708   -0.2500    0.0000 C   0  0  3  0  0  0  0  0  0  0  0  0
   -5.6583   -1.1667    0.0000 C   0  0  0  0  0  0  0  0  0  0  0  0
  2  1  2  0  0  0  0
  3  5  2  0  0  0  0
  4  2  1  0  0  0  0
  5  1  1  0  0  0  0
  6  3  1  0  0  0  0
  7  5  1  0  0  0  0
  8  2  1  0  0  0  0
  9  7  1  0  0  0  0
 10  9  1  0  0  0  0
 11 10  1  0  0  0  0
  3  4  1  0  0  0  0
  6 10  1  0  0  0  0
M  END
>  <ID> (3000351)
3000351

>  <RB> (3000351)
0

>  <clogP> (3000351)
2.320000000000000e+000

>  <Supplier> (3000351)
ChemBridge

>  <tPSA> (3000351)
3.891000000000000e+001

>  <Hacc> (3000351)
1

>  <Hdon> (3000351)
1

>  <Name> (3000351)
6-methyl-4,5,6,7-tetrahydro-1,3-benzothiazol-2-amine

>  <logSw> (3000351)
-3.169000000000000e+000

>  <Scheme> (3000351)
226

>  <Library> (3000351)
ExpressPick

>  <stereochemistry> (3000351)
unknown

$$$$
3002026


 11 11  0  0  0  0  0  0  0  0999 V2000
    0.0917   -0.4917    0.0000 C   0  0  0  0  0  0  0  0  0  0  0  0
   -1.2208   -1.4500    0.0000 N   0  0  0  0  0  0  0  0  0  0  0  0
    0.6792    0.3208    0.0000 C   0  0  0  0  0  0  0  0  0  0  0  0
   -0.9083   -0.4917    0.0000 C   0  0  0  0  0  0  0  0  0  0  0  0
   -0.4083   -2.0292    0.0000 N   0  0  0  0  0  0  0  0  0  0  0  0
    0.4000   -1.4500    0.0000 C   0  0  0  0  0  0  0  0  0  0  0  0
    0.2667    1.2333    0.0000 O   0  0  0  0  0  0  0  0  0  0  0  0
    1.6667    0.2125    0.0000 O   0  0  0  0  0  0  0  0  0  0  0  0
   -1.4958    0.3208    0.0000 C   0  0  0  0  0  0  0  0  0  0  0  0
   -1.0875    1.2333    0.0000 C   0  0  0  0  0  0  0  0  0  0  0  0
   -1.6750    2.0375    0.0000 C   0  0  0  0  0  0  0  0  0  0  0  0
  2  4  2  0  0  0  0
  3  1  1  0  0  0  0
  4  1  1  0  0  0  0
  5  6  1  0  0  0  0
  6  1  2  0  0  0  0
  7  3  2  0  0  0  0
  8  3  1  0  0  0  0
  9  4  1  0  0  0  0
 10  9  1  0  0  0  0
 11 10  1  0  0  0  0
  5  2  1  0  0  0  0
M  END
>  <ID> (3002026)
3002026

>  <RB> (3002026)
3

>  <clogP> (3002026)
9.650000000000002e-001

>  <Supplier> (3002026)
ChemBridge

>  <tPSA> (3002026)
6.598000000000000e+001

>  <Hacc> (3002026)
3

>  <Hdon> (3002026)
2

>  <Name> (3002026)
3-propyl-1H-pyrazole-4-carboxylic acid

>  <logSw> (3002026)
-1.150000000000000e+000

>  <Library> (3002026)
ExpressPick

$$$$
3007493


 11 11  0  0  0  0  0  0  0  0999 V2000
    0.6500    0.9458    0.0000 C   0  0  0  0  0  0  0  0  0  0  0  0
    1.3667    1.0125    0.0000 C   0  0  0  0  0  0  0  0  0  0  0  0
    0.3500    1.5958    0.0000 C   0  0  0  0  0  0  0  0  0  0  0  0
    0.9000    2.0958    0.0000 S   0  0  0  0  0  0  0  0  0  0  0  0
    0.2667    0.3458    0.0000 C   0  0  0  0  0  0  0  0  0  0  0  0
    1.5292    1.7333    0.0000 C   0  0  0  0  0  0  0  0  0  0  0  0
    0.6167   -0.2792    0.0000 O   0  0  0  0  0  0  0  0  0  0  0  0
   -0.4458    0.3458    0.0000 O   0  0  0  0  0  0  0  0  0  0  0  0
    1.8375    0.4625    0.0000 C   0  0  0  0  0  0  0  0  0  0  0  0
    2.1875    2.0208    0.0000 C   0  0  0  0  0  0  0  0  0  0  0  0
    2.5500    0.6125    0.0000 C   0  0  0  0  0  0  0  0  0  0  0  0
  2  1  1  0  0  0  0
  3  1  2  0  0  0  0
  4  3  1  0  0  0  0
  5  1  1  0  0  0  0
  6  2  2  0  0  0  0
  7  5  2  0  0  0  0
  8  5  1  0  0  0  0
  9  2  1  0  0  0  0
 10  6  1  0  0  0  0
 11  9  1  0  0  0  0
  6  4  1  0  0  0  0
M  END
>  <ID> (3007493)
3007493

>  <RB> (3007493)
1

>  <clogP> (3007493)
2.230000000000000e+000

>  <Supplier> (3007493)
ChemBridge

>  <tPSA> (3007493)
3.730000000000000e+001

>  <Hacc> (3007493)
2

>  <Hdon> (3007493)
1

>  <Name> (3007493)
4-ethyl-5-methylthiophene-3-carboxylic acid

>  <logSw> (3007493)
-3.245000000000000e+000

>  <Library> (3007493)
ExpressPick

$$$$
3013793


 13 13  0  0  0  0  0  0  0  0999 V2000
    1.1292    0.0125    0.0000 C   0  0  0  0  0  0  0  0  0  0  0  0
   -3.7708    1.6958    0.0000 C   0  0  0  0  0  0  0  0  0  0  0  0
   -0.8333    0.0125    0.0000 O   0  0  0  0  0  0  0  0  0  0  0  0
    2.0875   -1.6875    0.0000 C   0  0  0  0  0  0  0  0  0  0  0  0
    2.1042    1.6958    0.0000 C   0  0  0  0  0  0  0  0  0  0  0  0
   -4.7333    0.0125    0.0000 O   0  0  0  0  0  0  0  0  0  0  0  0
    4.0500   -1.6875    0.0000 C   0  0  0  0  0  0  0  0  0  0  0  0
   -1.8125    1.6958    0.0000 C   0  0  0  0  0  0  0  0  0  0  0  0
    4.0667    1.6958    0.0000 C   0  0  0  0  0  0  0  0  0  0  0  0
    1.1042   -3.3875    0.0000 Cl  0  0  0  0  0  0  0  0  0  0  0  0
   -4.7500    3.3958    0.0000 O   0  0  0  0  0  0  0  0  0  0  0  0
    5.0292   -0.0042    0.0000 C   0  0  0  0  0  0  0  0  0  0  0  0
    5.0667    3.3958    0.0000 C   0  0  0  0  0  0  0  0  0  0  0  0
  2  8  1  0  0  0  0
  3  1  1  0  0  0  0
  4  1  1  0  0  0  0
  5  1  2  0  0  0  0
  6  2  2  0  0  0  0
  7  4  2  0  0  0  0
  8  3  1  0  0  0  0
  9  5  1  0  0  0  0
 10  4  1  0  0  0  0
 11  2  1  0  0  0  0
 12  9  2  0  0  0  0
 13  9  1  0  0  0  0
 12  7  1  0  0  0  0
M  END
>  <ID> (3013793)
3013793

>  <RB> (3013793)
3

>  <clogP> (3013793)
2.470000000000000e+000

>  <Supplier> (3013793)
ChemBridge

>  <tPSA> (3013793)
4.652999999999998e+001

>  <Hacc> (3013793)
3

>  <Hdon> (3013793)
1

>  <Name> (3013793)
(2-chloro-5-methylphenoxy)acetic acid

>  <logSw> (3013793)
-2.422000000000000e+000

>  <Scheme> (3013793)
314

>  <Library> (3013793)
ExpressPick

$$$$
3013797


 13 13  0  0  0  0  0  0  0  0999 V2000
    2.0875   -1.4292    0.0000 C   0  0  0  0  0  0  0  0  0  0  0  0
    0.7667   -1.4292    0.0000 C   0  0  0  0  0  0  0  0  0  0  0  0
   -3.2125    0.8500    0.0000 C   0  0  0  0  0  0  0  0  0  0  0  0
    2.7500   -0.2875    0.0000 C   0  0  0  0  0  0  0  0  0  0  0  0
   -3.8708   -0.2875    0.0000 O   0  0  0  0  0  0  0  0  0  0  0  0
    0.1042   -0.2875    0.0000 C   0  0  0  0  0  0  0  0  0  0  0  0
    2.0875    0.8708    0.0000 C   0  0  0  0  0  0  0  0  0  0  0  0
   -1.2333   -0.2875    0.0000 O   0  0  0  0  0  0  0  0  0  0  0  0
   -1.8958    0.8708    0.0000 C   0  0  0  0  0  0  0  0  0  0  0  0
    2.7500   -2.5875    0.0000 Cl  0  0  0  0  0  0  0  0  0  0  0  0
    4.0667   -0.2875    0.0000 F   0  0  0  0  0  0  0  0  0  0  0  0
   -3.8708    2.0208    0.0000 O   0  0  0  0  0  0  0  0  0  0  0  0
    0.7667    0.8708    0.0000 C   0  0  0  0  0  0  0  0  0  0  0  0
  2  1  2  0  0  0  0
  3  9  1  0  0  0  0
  4  1  1  0  0  0  0
  5  3  2  0  0  0  0
  6  2  1  0  0  0  0
  7  4  2  0  0  0  0
  8  6  1  0  0  0  0
  9  8  1  0  0  0  0
 10  1  1  0  0  0  0
 11  4  1  0  0  0  0
 12  3  1  0  0  0  0
 13  7  1  0  0  0  0
 13  6  2  0  0  0  0
M  END
>  <ID> (3013797)
3013797

>  <RB> (3013797)
3

>  <clogP> (3013797)
2.400000000000000e+000

>  <Supplier> (3013797)
ChemBridge

>  <tPSA> (3013797)
4.652999999999998e+001

>  <Hacc> (3013797)
3

>  <Hdon> (3013797)
1

>  <Name> (3013797)
(3-chloro-4-fluorophenoxy)acetic acid

>  <logSw> (3013797)
-2.154000000000000e+000

>  <Library> (3013797)
ExpressPick

$$$$
3013798


 13 13  0  0  0  0  0  0  0  0999 V2000
    1.2542   -1.7375    0.0000 C   0  0  0  0  0  0  0  0  0  0  0  0
    2.3542   -1.7375    0.0000 C   0  0  0  0  0  0  0  0  0  0  0  0
    0.7000   -0.8000    0.0000 C   0  0  0  0  0  0  0  0  0  0  0  0
   -2.0625   -1.7375    0.0000 C   0  0  0  0  0  0  0  0  0  0  0  0
   -0.4000   -0.8000    0.0000 O   0  0  0  0  0  0  0  0  0  0  0  0
   -2.6208   -2.7000    0.0000 O   0  0  0  0  0  0  0  0  0  0  0  0
    1.2542    0.1625    0.0000 C   0  0  0  0  0  0  0  0  0  0  0  0
    2.9167   -0.8000    0.0000 C   0  0  0  0  0  0  0  0  0  0  0  0
   -0.9625   -1.7375    0.0000 C   0  0  0  0  0  0  0  0  0  0  0  0
    0.6792   -2.7000    0.0000 F   0  0  0  0  0  0  0  0  0  0  0  0
   -2.6208   -0.7792    0.0000 O   0  0  0  0  0  0  0  0  0  0  0  0
    2.3542    0.1833    0.0000 C   0  0  0  0  0  0  0  0  0  0  0  0
    4.0167   -0.8000    0.0000 F   0  0  0  0  0  0  0  0  0  0  0  0
  2  1  2  0  0  0  0
  3  1  1  0  0  0  0
  4  9  1  0  0  0  0
  5  3  1  0  0  0  0
  6  4  2  0  0  0  0
  7  3  2  0  0  0  0
  8  2  1  0  0  0  0
  9  5  1  0  0  0  0
 10  1  1  0  0  0  0
 11  4  1  0  0  0  0
 12  7  1  0  0  0  0
 13  8  1  0  0  0  0
 12  8  2  0  0  0  0
M  END
>  <ID> (3013798)
3013798

>  <RB> (3013798)
3

>  <clogP> (3013798)
1.630000000000000e+000

>  <Supplier> (3013798)
ChemBridge

>  <tPSA> (3013798)
4.652999999999998e+001

>  <Hacc> (3013798)
3

>  <Hdon> (3013798)
1

>  <Name> (3013798)
(2,4-difluorophenoxy)acetic acid

>  <logSw> (3013798)
-1.655000000000000e+000

>  <Scheme> (3013798)
314

>  <Library> (3013798)
ExpressPick

$$$$
3013808


 13 13  0  0  0  0  0  0  0  0999 V2000
   -4.0208    1.7125    0.0000 C   0  0  0  0  0  0  0  0  0  0  0  0
    0.2667    0.2500    0.0000 C   0  0  0  0  0  0  0  0  0  0  0  0
   -4.8500    0.2500    0.0000 O   0  0  0  0  0  0  0  0  0  0  0  0
    2.8292    1.7125    0.0000 C   0  0  0  0  0  0  0  0  0  0  0  0
    2.8292   -1.2500    0.0000 C   0  0  0  0  0  0  0  0  0  0  0  0
   -1.4500    0.2500    0.0000 O   0  0  0  0  0  0  0  0  0  0  0  0
    1.1042   -1.2500    0.0000 C   0  0  0  0  0  0  0  0  0  0  0  0
    1.1042    1.7125    0.0000 C   0  0  0  0  0  0  0  0  0  0  0  0
    3.6667    0.2500    0.0000 C   0  0  0  0  0  0  0  0  0  0  0  0
   -2.2958    1.7125    0.0000 C   0  0  0  0  0  0  0  0  0  0  0  0
   -4.8500    3.1958    0.0000 O   0  0  0  0  0  0  0  0  0  0  0  0
    3.7042   -2.7292    0.0000 C   0  0  0  0  0  0  0  0  0  0  0  0
    3.6875    3.2125    0.0000 C   0  0  0  0  0  0  0  0  0  0  0  0
  2  6  1  0  0  0  0
  3  1  2  0  0  0  0
  4  8  1  0  0  0  0
  5  7  2  0  0  0  0
  6 10  1  0  0  0  0
  7  2  1  0  0  0  0
  8  2  2  0  0  0  0
  9  4  2  0  0  0  0
 10  1  1  0  0  0  0
 11  1  1  0  0  0  0
 12  5  1  0  0  0  0
 13  4  1  0  0  0  0
  5  9  1  0  0  0  0
M  END
>  <ID> (3013808)
3013808

>  <RB> (3013808)
3

>  <clogP> (3013808)
2.350000000000000e+000

>  <Supplier> (3013808)
ChemBridge

>  <tPSA> (3013808)
4.652999999999998e+001

>  <Hacc> (3013808)
3

>  <Hdon> (3013808)
1

>  <Name> (3013808)
(3,5-dimethylphenoxy)acetic acid

>  <logSw> (3013808)
-2.190000000000000e+000

>  <Scheme> (3013808)
314

>  <Library> (3013808)
ExpressPick

$$$$
3013817


 14 15  0  0  0  0  0  0  0  0999 V2000
    2.1542   -0.5875    0.0000 C   0  0  0  0  0  0  0  0  0  0  0  0
   -2.5833    1.4500    0.0000 C   0  0  0  0  0  0  0  0  0  0  0  0
    2.7542    0.4333    0.0000 C   0  0  0  0  0  0  0  0  0  0  0  0
    0.9792   -0.5875    0.0000 C   0  0  0  0  0  0  0  0  0  0  0  0
   -3.1833    2.4708    0.0000 O   0  0  0  0  0  0  0  0  0  0  0  0
    2.1542    1.4500    0.0000 C   0  0  0  0  0  0  0  0  0  0  0  0
    0.3792    0.4333    0.0000 C   0  0  0  0  0  0  0  0  0  0  0  0
   -0.8000    0.4333    0.0000 O   0  0  0  0  0  0  0  0  0  0  0  0
   -1.4000    1.4500    0.0000 C   0  0  0  0  0  0  0  0  0  0  0  0
   -3.1833    0.4333    0.0000 O   0  0  0  0  0  0  0  0  0  0  0  0
    0.9792    1.4500    0.0000 C   0  0  0  0  0  0  0  0  0  0  0  0
    2.9542   -1.4875    0.0000 C   0  0  0  0  0  0  0  0  0  0  0  0
    4.0167   -1.0042    0.0000 C   0  0  0  0  0  0  0  0  0  0  0  0
    3.9000    0.1708    0.0000 C   0  0  0  0  0  0  0  0  0  0  0  0
  2  9  1  0  0  0  0
  3  1  2  0  0  0  0
  4  1  1  0  0  0  0
  5  2  2  0  0  0  0
  6  3  1  0  0  0  0
  7  4  2  0  0  0  0
  8  7  1  0  0  0  0
  9  8  1  0  0  0  0
 10  2  1  0  0  0  0
 11  7  1  0  0  0  0
 12  1  1  0  0  0  0
 13 12  1  0  0  0  0
 14  3  1  0  0  0  0
 13 14  1  0  0  0  0
 11  6  2  0  0  0  0
M  END
>  <ID> (3013817)
3013817

>  <RB> (3013817)
3

>  <clogP> (3013817)
2.360000000000000e+000

>  <Supplier> (3013817)
ChemBridge

>  <tPSA> (3013817)
4.652999999999998e+001

>  <Hacc> (3013817)
3

>  <Hdon> (3013817)
1

>  <Name> (3013817)
(2,3-dihydro-1H-inden-5-yloxy)acetic acid

>  <logSw> (3013817)
-2.198000000000000e+000

>  <Scheme> (3013817)
314

>  <Library> (3013817)
ExpressPick

$$$$
3013821


 13 13  0  0  0  0  0  0  0  0999 V2000
    0.8667    2.9625    0.0000 C   0  0  0  0  0  0  0  0  0  0  0  0
    2.5667    2.9625    0.0000 C   0  0  0  0  0  0  0  0  0  0  0  0
    0.0292    1.5000    0.0000 C   0  0  0  0  0  0  0  0  0  0  0  0
   -4.2208    0.0208    0.0000 C   0  0  0  0  0  0  0  0  0  0  0  0
   -1.6708    1.5000    0.0000 O   0  0  0  0  0  0  0  0  0  0  0  0
   -5.0708    1.5000    0.0000 O   0  0  0  0  0  0  0  0  0  0  0  0
    0.8875    0.0208    0.0000 C   0  0  0  0  0  0  0  0  0  0  0  0
    3.4042    1.5000    0.0000 C   0  0  0  0  0  0  0  0  0  0  0  0
   -2.5125    0.0458    0.0000 C   0  0  0  0  0  0  0  0  0  0  0  0
    0.0042    4.4167    0.0000 Cl  0  0  0  0  0  0  0  0  0  0  0  0
   -5.0500   -1.4375    0.0000 O   0  0  0  0  0  0  0  0  0  0  0  0
    2.5875    0.0458    0.0000 C   0  0  0  0  0  0  0  0  0  0  0  0
    5.1042    1.5000    0.0000 F   0  0  0  0  0  0  0  0  0  0  0  0
  2  1  2  0  0  0  0
  3  1  1  0  0  0  0
  4  9  1  0  0  0  0
  5  3  1  0  0  0  0
  6  4  2  0  0  0  0
  7  3  2  0  0  0  0
  8  2  1  0  0  0  0
  9  5  1  0  0  0  0
 10  1  1  0  0  0  0
 11  4  1  0  0  0  0
 12  7  1  0  0  0  0
 13  8  1  0  0  0  0
 12  8  2  0  0  0  0
M  END
>  <ID> (3013821)
3013821

>  <RB> (3013821)
3

>  <clogP> (3013821)
2.170000000000000e+000

>  <Supplier> (3013821)
ChemBridge

>  <tPSA> (3013821)
4.652999999999998e+001

>  <Hacc> (3013821)
3

>  <Hdon> (3013821)
1

>  <Name> (3013821)
(2-chloro-4-fluorophenoxy)acetic acid

>  <logSw> (3013821)
-2.154000000000000e+000

>  <Scheme> (3013821)
314

>  <Library> (3013821)
ExpressPick

$$$$
3013832


 14 14  0  0  0  0  0  0  0  0999 V2000
   -0.4208   -2.2375    0.0000 O   0  0  0  0  0  0  0  0  0  0  0  0
   -2.9625   -0.7500    0.0000 C   0  0  0  0  0  0  0  0  0  0  0  0
    0.4375   -0.7667    0.0000 C   0  0  0  0  0  0  0  0  0  0  0  0
    2.1292   -0.7875    0.0000 C   0  0  0  0  0  0  0  0  0  0  0  0
    2.9875    0.6708    0.0000 C   0  0  0  0  0  0  0  0  0  0  0  0
   -2.1208   -2.2042    0.0000 C   0  0  3  0  0  0  0  0  0  0  0  0
   -2.0833    0.7333    0.0000 O   0  0  0  0  0  0  0  0  0  0  0  0
   -0.3958    0.7125    0.0000 C   0  0  0  0  0  0  0  0  0  0  0  0
    2.1542    2.1458    0.0000 C   0  0  0  0  0  0  0  0  0  0  0  0
    2.9542   -2.3000    0.0000 F   0  0  0  0  0  0  0  0  0  0  0  0
   -4.6625   -0.7500    0.0000 O   0  0  0  0  0  0  0  0  0  0  0  0
    0.4542    2.1833    0.0000 C   0  0  0  0  0  0  0  0  0  0  0  0
    3.0375    3.6083    0.0000 F   0  0  0  0  0  0  0  0  0  0  0  0
   -2.9958   -3.6792    0.0000 C   0  0  0  0  0  0  0  0  0  0  0  0
  2  6  1  0  0  0  0
  3  1  1  0  0  0  0
  4  3  1  0  0  0  0
  5  4  2  0  0  0  0
  6  1  1  0  0  0  0
  7  2  2  0  0  0  0
  8  3  2  0  0  0  0
  9 12  2  0  0  0  0
 10  4  1  0  0  0  0
 11  2  1  0  0  0  0
 12  8  1  0  0  0  0
 13  9  1  0  0  0  0
 14  6  1  0  0  0  0
  5  9  1  0  0  0  0
M  END
>  <ID> (3013832)
3013832

>  <RB> (3013832)
3

>  <clogP> (3013832)
2.150000000000000e+000

>  <Supplier> (3013832)
ChemBridge

>  <tPSA> (3013832)
4.652999999999998e+001

>  <Hacc> (3013832)
3

>  <Hdon> (3013832)
1

>  <Name> (3013832)
2-(2,4-difluorophenoxy)propanoic acid

>  <logSw> (3013832)
-2.114000000000000e+000

>  <Library> (3013832)
ExpressPick

>  <stereochemistry> (3013832)
unknown

$$$$
3013838


 13 13  0  0  0  0  0  0  0  0999 V2000
   -2.5000    0.0208    0.0000 C   0  0  0  0  0  0  0  0  0  0  0  0
    0.0667   -1.4375    0.0000 O   0  0  0  0  0  0  0  0  0  0  0  0
    0.9167    0.0625    0.0000 C   0  0  0  0  0  0  0  0  0  0  0  0
   -1.6333   -1.4375    0.0000 C   0  0  3  0  0  0  0  0  0  0  0  0
   -1.6458    1.5333    0.0000 O   0  0  0  0  0  0  0  0  0  0  0  0
    2.6000    0.0708    0.0000 C   0  0  0  0  0  0  0  0  0  0  0  0
   -4.2083    0.0208    0.0000 O   0  0  0  0  0  0  0  0  0  0  0  0
    0.0292    1.5208    0.0000 C   0  0  0  0  0  0  0  0  0  0  0  0
   -2.4833   -2.9375    0.0000 C   0  0  0  0  0  0  0  0  0  0  0  0
    3.4792   -1.4167    0.0000 C   0  0  0  0  0  0  0  0  0  0  0  0
    3.4500    1.5625    0.0000 C   0  0  0  0  0  0  0  0  0  0  0  0
    0.8792    3.0208    0.0000 C   0  0  0  0  0  0  0  0  0  0  0  0
    2.6000    3.0208    0.0000 C   0  0  0  0  0  0  0  0  0  0  0  0
  2  4  1  0  0  0  0
  3  2  1  0  0  0  0
  4  1  1  0  0  0  0
  5  1  2  0  0  0  0
  6  3  1  0  0  0  0
  7  1  1  0  0  0  0
  8  3  2  0  0  0  0
  9  4  1  0  0  0  0
 10  6  1  0  0  0  0
 11  6  2  0  0  0  0
 12  8  1  0  0  0  0
 13 12  2  0  0  0  0
 11 13  1  0  0  0  0
M  END
>  <ID> (3013838)
3013838

>  <RB> (3013838)
3

>  <clogP> (3013838)
2.380000000000000e+000

>  <Supplier> (3013838)
ChemBridge

>  <tPSA> (3013838)
4.652999999999998e+001

>  <Hacc> (3013838)
3

>  <Hdon> (3013838)
1

>  <Name> (3013838)
2-(2-methylphenoxy)propanoic acid

>  <logSw> (3013838)
-2.079000000000000e+000

>  <Scheme> (3013838)
314

>  <Library> (3013838)
ExpressPick

>  <stereochemistry> (3013838)
unknown

$$$$
3013839


 13 13  0  0  0  0  0  0  0  0999 V2000
   -2.5125    0.0125    0.0000 C   0  0  0  0  0  0  0  0  0  0  0  0
    0.0542   -1.4542    0.0000 O   0  0  0  0  0  0  0  0  0  0  0  0
   -1.6458   -1.4542    0.0000 C   0  0  3  0  0  0  0  0  0  0  0  0
   -1.6500    1.5125    0.0000 O   0  0  0  0  0  0  0  0  0  0  0  0
    0.9042    0.0458    0.0000 C   0  0  0  0  0  0  0  0  0  0  0  0
    2.6042    0.0458    0.0000 C   0  0  0  0  0  0  0  0  0  0  0  0
   -4.2208    0.0125    0.0000 O   0  0  0  0  0  0  0  0  0  0  0  0
    3.4542    1.5333    0.0000 C   0  0  0  0  0  0  0  0  0  0  0  0
    0.8792    2.9958    0.0000 C   0  0  0  0  0  0  0  0  0  0  0  0
    0.0292    1.4958    0.0000 C   0  0  0  0  0  0  0  0  0  0  0  0
   -2.4958   -2.9500    0.0000 C   0  0  0  0  0  0  0  0  0  0  0  0
    2.5875    2.9958    0.0000 C   0  0  0  0  0  0  0  0  0  0  0  0
    5.1792    1.5625    0.0000 C   0  0  0  0  0  0  0  0  0  0  0  0
  2  3  1  0  0  0  0
  3  1  1  0  0  0  0
  4  1  2  0  0  0  0
  5  2  1  0  0  0  0
  6  5  1  0  0  0  0
  7  1  1  0  0  0  0
  8  6  2  0  0  0  0
  9 10  1  0  0  0  0
 10  5  2  0  0  0  0
 11  3  1  0  0  0  0
 12  9  2  0  0  0  0
 13  8  1  0  0  0  0
 12  8  1  0  0  0  0
M  END
>  <ID> (3013839)
3013839

>  <RB> (3013839)
3

>  <clogP> (3013839)
2.380000000000000e+000

>  <Supplier> (3013839)
ChemBridge

>  <tPSA> (3013839)
4.652999999999998e+001

>  <Hacc> (3013839)
3

>  <Hdon> (3013839)
1

>  <Name> (3013839)
2-(3-methylphenoxy)propanoic acid

>  <logSw> (3013839)
-2.079000000000000e+000

>  <Scheme> (3013839)
314

>  <Library> (3013839)
ExpressPick

>  <stereochemistry> (3013839)
unknown

$$$$
3013908


 13 13  0  0  0  0  0  0  0  0999 V2000
   -1.0625   -1.6167    0.0000 C   0  0  3  0  0  0  0  0  0  0  0  0
   -3.1208   -1.6167    0.0000 C   0  0  0  0  0  0  0  0  0  0  0  0
    1.0000   -1.6167    0.0000 O   0  0  0  0  0  0  0  0  0  0  0  0
   -4.1625    0.1833    0.0000 O   0  0  0  0  0  0  0  0  0  0  0  0
   -4.1458   -3.3792    0.0000 O   0  0  0  0  0  0  0  0  0  0  0  0
    2.0542    0.1625    0.0000 C   0  0  0  0  0  0  0  0  0  0  0  0
   -1.0625    0.4458    0.0000 C   0  0  0  0  0  0  0  0  0  0  0  0
   -1.0625   -3.6542    0.0000 C   0  0  0  0  0  0  0  0  0  0  0  0
    4.1167    0.1625    0.0000 C   0  0  0  0  0  0  0  0  0  0  0  0
    1.0375    1.9458    0.0000 C   0  0  0  0  0  0  0  0  0  0  0  0
    5.1375    1.9458    0.0000 C   0  0  0  0  0  0  0  0  0  0  0  0
    2.0792    3.7208    0.0000 C   0  0  0  0  0  0  0  0  0  0  0  0
    4.1375    3.7083    0.0000 C   0  0  0  0  0  0  0  0  0  0  0  0
  2  1  1  0  0  0  0
  3  1  1  0  0  0  0
  4  2  2  0  0  0  0
  5  2  1  0  0  0  0
  6  3  1  0  0  0  0
  7  1  1  0  0  0  0
  8  1  1  0  0  0  0
  9  6  1  0  0  0  0
 10  6  2  0  0  0  0
 11  9  2  0  0  0  0
 12 10  1  0  0  0  0
 13 12  2  0  0  0  0
 13 11  1  0  0  0  0
M  END
>  <ID> (3013908)
3013908

>  <RB> (3013908)
3

>  <clogP> (3013908)
2.410000000000000e+000

>  <Supplier> (3013908)
ChemBridge

>  <tPSA> (3013908)
4.652999999999998e+001

>  <Hacc> (3013908)
3

>  <Hdon> (3013908)
1

>  <Name> (3013908)
2-methyl-2-phenoxypropanoic acid

>  <logSw> (3013908)
-1.999000000000000e+000

>  <Scheme> (3013908)
314

>  <Library> (3013908)
ExpressPick

$$$$
3013974


 12 12  0  0  0  0  0  0  0  0999 V2000
   -2.1708    0.8708    0.0000 C   0  0  0  0  0  0  0  0  0  0  0  0
   -2.4625    1.3833    0.0000 O   0  0  0  0  0  0  0  0  0  0  0  0
   -0.4500    1.8500    0.0000 C   0  0  0  0  0  0  0  0  0  0  0  0
   -1.3125    1.3833    0.0000 O   0  0  0  0  0  0  0  0  0  0  0  0
   -1.6000    0.8708    0.0000 C   0  0  0  0  0  0  0  0  0  0  0  0
   -0.7458    1.3500    0.0000 C   0  0  0  0  0  0  0  0  0  0  0  0
    0.1500    1.8500    0.0000 C   0  0  0  0  0  0  0  0  0  0  0  0
   -2.4500    0.3708    0.0000 O   0  0  0  0  0  0  0  0  0  0  0  0
    0.4542    2.3458    0.0000 Br  0  0  0  0  0  0  0  0  0  0  0  0
    0.1042    0.8500    0.0000 C   0  0  0  0  0  0  0  0  0  0  0  0
   -0.4500    0.8708    0.0000 C   0  0  0  0  0  0  0  0  0  0  0  0
    0.4292    1.3708    0.0000 C   0  0  0  0  0  0  0  0  0  0  0  0
  2  1  2  0  0  0  0
  3  6  1  0  0  0  0
  4  5  1  0  0  0  0
  5  1  1  0  0  0  0
  6  4  1  0  0  0  0
  7  3  2  0  0  0  0
  8  1  1  0  0  0  0
  9  7  1  0  0  0  0
 10 11  1  0  0  0  0
 11  6  2  0  0  0  0
 12 10  2  0  0  0  0
 12  7  1  0  0  0  0
M  END
>  <ID> (3013974)
3013974

>  <RB> (3013974)
3

>  <clogP> (3013974)
2.350000000000000e+000

>  <Supplier> (3013974)
ChemBridge

>  <tPSA> (3013974)
4.652999999999998e+001

>  <Hacc> (3013974)
3

>  <Hdon> (3013974)
1

>  <Name> (3013974)
(3-bromophenoxy)acetic acid

>  <logSw> (3013974)
-2.387000000000000e+000

>  <Scheme> (3013974)
314

>  <Library> (3013974)
ExpressPick

$$$$
3013975


 12 12  0  0  0  0  0  0  0  0999 V2000
   -2.3625    1.8625    0.0000 C   0  0  0  0  0  0  0  0  0  0  0  0
   -1.5208    1.3833    0.0000 O   0  0  0  0  0  0  0  0  0  0  0  0
   -0.9458    1.3833    0.0000 C   0  0  0  0  0  0  0  0  0  0  0  0
   -2.6625    2.3625    0.0000 O   0  0  0  0  0  0  0  0  0  0  0  0
   -0.6625    1.8625    0.0000 C   0  0  0  0  0  0  0  0  0  0  0  0
   -1.8000    1.8625    0.0000 C   0  0  0  0  0  0  0  0  0  0  0  0
   -0.9458    2.3625    0.0000 F   0  0  0  0  0  0  0  0  0  0  0  0
   -2.6458    1.3833    0.0000 O   0  0  0  0  0  0  0  0  0  0  0  0
   -0.6625    0.8833    0.0000 C   0  0  0  0  0  0  0  0  0  0  0  0
   -0.1000    1.8625    0.0000 C   0  0  0  0  0  0  0  0  0  0  0  0
    0.2000    1.3833    0.0000 C   0  0  0  0  0  0  0  0  0  0  0  0
   -0.0833    0.8833    0.0000 C   0  0  0  0  0  0  0  0  0  0  0  0
  2  6  1  0  0  0  0
  3  2  1  0  0  0  0
  4  1  2  0  0  0  0
  5  3  1  0  0  0  0
  6  1  1  0  0  0  0
  7  5  1  0  0  0  0
  8  1  1  0  0  0  0
  9  3  2  0  0  0  0
 10  5  2  0  0  0  0
 11 12  2  0  0  0  0
 12  9  1  0  0  0  0
 10 11  1  0  0  0  0
M  END
>  <ID> (3013975)
3013975

>  <RB> (3013975)
3

>  <clogP> (3013975)
1.430000000000000e+000

>  <Supplier> (3013975)
ChemBridge

>  <tPSA> (3013975)
4.652999999999998e+001

>  <Hacc> (3013975)
3

>  <Hdon> (3013975)
1

>  <Name> (3013975)
(2-fluorophenoxy)acetic acid

>  <logSw> (3013975)
-1.235000000000000e+000

>  <Scheme> (3013975)
314

>  <Library> (3013975)
ExpressPick

$$$$
4000011


 13 14  0  0  0  0  0  0  0  0999 V2000
   -1.2958    0.7625    0.0000 O   0  0  0  0  0  0  0  0  0  0  0  0
   -0.4125    1.9625    0.0000 C   0  0  0  0  0  0  0  0  0  0  0  0
   -0.4125    1.0458    0.0000 C   0  0  0  0  0  0  0  0  0  0  0  0
   -1.8125    1.5000    0.0000 C   0  0  3  0  0  0  0  0  0  0  0  0
   -1.2958    2.2458    0.0000 C   0  0  0  0  0  0  0  0  0  0  0  0
    0.3875    2.4208    0.0000 C   0  0  0  0  0  0  0  0  0  0  0  0
    0.3875    0.5833    0.0000 C   0  0  0  0  0  0  0  0  0  0  0  0
    1.1875    1.9625    0.0000 C   0  0  0  0  0  0  0  0  0  0  0  0
    1.1875    1.0458    0.0000 C   0  0  0  0  0  0  0  0  0  0  0  0
    2.8000    1.9958    0.0000 N   0  0  0  0  0  0  0  0  0  0  0  0
   -2.6333    0.8208    0.0000 C   0  0  0  0  0  0  0  0  0  0  0  0
   -2.6500    1.9333    0.0000 C   0  0  0  0  0  0  0  0  0  0  0  0
    1.9875    2.4458    0.0000 C   0  0  0  0  0  0  0  0  0  0  0  0
  2  3  1  0  0  0  0
  3  1  1  0  0  0  0
  4  1  1  0  0  0  0
  5  4  1  0  0  0  0
  6  2  2  0  0  0  0
  7  3  2  0  0  0  0
  8  9  2  0  0  0  0
  9  7  1  0  0  0  0
 10 13  1  0  0  0  0
 11  4  1  0  0  0  0
 12  4  1  0  0  0  0
 13  8  1  0  0  0  0
  2  5  1  0  0  0  0
  6  8  1  0  0  0  0
M  END
>  <ID> (4000011)
4000011

>  <RB> (4000011)
1

>  <clogP> (4000011)
2.186000000000000e+000

>  <Supplier> (4000011)
ChemBridge

>  <tPSA> (4000011)
3.525000000000000e+001

>  <Hacc> (4000011)
2

>  <Hdon> (4000011)
1

>  <Name> (4000011)
[(2,2-dimethyl-2,3-dihydro-1-benzofuran-5-yl)methyl]amine hydrochloride

>  <logSw> (4000011)
-1.353000000000000e+000

>  <Library> (4000011)
ExpressPick

$$$$
4000088


 14 15  0  0  0  0  0  0  0  0999 V2000
    2.7042    0.6083    0.0000 C   0  0  0  0  0  0  0  0  0  0  0  0
    3.4167    0.1958    0.0000 C   0  0  0  0  0  0  0  0  0  0  0  0
    1.9917    0.1875    0.0000 C   0  0  0  0  0  0  0  0  0  0  0  0
    1.2750    0.6000    0.0000 N   0  0  0  0  0  0  0  0  0  0  0  0
    2.7000    1.4250    0.0000 O   0  0  0  0  0  0  0  0  0  0  0  0
    4.8417    0.2083    0.0000 N   0  0  0  0  0  0  0  0  0  0  0  0
    4.1250    0.6125    0.0000 C   0  0  0  0  0  0  0  0  0  0  0  0
    3.4167   -0.6292    0.0000 C   0  0  0  0  0  0  0  0  0  0  0  0
    0.5625    0.1875    0.0000 C   0  0  0  0  0  0  0  0  0  0  0  0
    4.8500   -0.6167    0.0000 C   0  0  0  0  0  0  0  0  0  0  0  0
    1.9917   -0.6417    0.0000 C   0  0  0  0  0  0  0  0  0  0  0  0
    4.1292   -1.0375    0.0000 C   0  0  0  0  0  0  0  0  0  0  0  0
    0.5625   -0.6417    0.0000 C   0  0  0  0  0  0  0  0  0  0  0  0
    1.2750   -1.0542    0.0000 C   0  0  0  0  0  0  0  0  0  0  0  0
  2  1  1  0  0  0  0
  3  1  1  0  0  0  0
  4  3  2  0  0  0  0
  5  1  2  0  0  0  0
  6  7  2  0  0  0  0
  7  2  1  0  0  0  0
  8  2  2  0  0  0  0
  9  4  1  0  0  0  0
 10 12  2  0  0  0  0
 11  3  1  0  0  0  0
 12  8  1  0  0  0  0
 13 14  1  0  0  0  0
 14 11  2  0  0  0  0
  9 13  2  0  0  0  0
  6 10  1  0  0  0  0
M  END
>  <ID> (4000088)
4000088

>  <RB> (4000088)
2

>  <clogP> (4000088)
1.113000000000000e+000

>  <Supplier> (4000088)
ChemBridge

>  <tPSA> (4000088)
4.285000000000000e+001

>  <Hacc> (4000088)
3

>  <Hdon> (4000088)
0

>  <Name> (4000088)
pyridin-2-yl(pyridin-3-yl)methanone

>  <logSw> (4000088)
-1.128000000000000e+000

>  <Library> (4000088)
ExpressPick

$$$$
4000089


 14 15  0  0  0  0  0  0  0  0999 V2000
    2.4917   -0.5417    0.0000 C   0  0  0  0  0  0  0  0  0  0  0  0
    1.7792   -0.9625    0.0000 C   0  0  0  0  0  0  0  0  0  0  0  0
    1.0625   -0.5500    0.0000 N   0  0  0  0  0  0  0  0  0  0  0  0
    2.4875    0.2750    0.0000 O   0  0  0  0  0  0  0  0  0  0  0  0
    4.6375   -1.7667    0.0000 N   0  0  0  0  0  0  0  0  0  0  0  0
    3.2042   -0.9542    0.0000 C   0  0  0  0  0  0  0  0  0  0  0  0
    0.3500   -0.9625    0.0000 C   0  0  0  0  0  0  0  0  0  0  0  0
    4.6292   -0.9417    0.0000 C   0  0  0  0  0  0  0  0  0  0  0  0
    3.9167   -2.1875    0.0000 C   0  0  0  0  0  0  0  0  0  0  0  0
    1.7792   -1.7917    0.0000 C   0  0  0  0  0  0  0  0  0  0  0  0
    3.9125   -0.5375    0.0000 C   0  0  0  0  0  0  0  0  0  0  0  0
    3.2042   -1.7792    0.0000 C   0  0  0  0  0  0  0  0  0  0  0  0
    0.3500   -1.7917    0.0000 C   0  0  0  0  0  0  0  0  0  0  0  0
    1.0625   -2.2042    0.0000 C   0  0  0  0  0  0  0  0  0  0  0  0
  2  1  1  0  0  0  0
  3  2  2  0  0  0  0
  4  1  2  0  0  0  0
  5  9  2  0  0  0  0
  6  1  1  0  0  0  0
  7  3  1  0  0  0  0
  8 11  2  0  0  0  0
  9 12  1  0  0  0  0
 10  2  1  0  0  0  0
 11  6  1  0  0  0  0
 12  6  2  0  0  0  0
 13 14  1  0  0  0  0
 14 10  2  0  0  0  0
  8  5  1  0  0  0  0
  7 13  2  0  0  0  0
M  END
>  <ID> (4000089)
4000089

>  <RB> (4000089)
2

>  <clogP> (4000089)
1.113000000000000e+000

>  <Supplier> (4000089)
ChemBridge

>  <tPSA> (4000089)
4.285000000000000e+001

>  <Hacc> (4000089)
3

>  <Hdon> (4000089)
0

>  <Name> (4000089)
pyridin-2-yl(pyridin-4-yl)methanone

>  <logSw> (4000089)
-2.467000000000000e+000

>  <Library> (4000089)
ExpressPick

$$$$
4000090


 15 16  0  0  0  0  0  0  0  0999 V2000
   -2.6333    1.7833    0.0000 C   0  0  0  0  0  0  0  0  0  0  0  0
   -1.9208    1.3750    0.0000 C   0  0  0  0  0  0  0  0  0  0  0  0
   -3.3458    1.3708    0.0000 C   0  0  0  0  0  0  0  0  0  0  0  0
   -1.2125    1.7958    0.0000 C   0  0  0  0  0  0  0  0  0  0  0  0
   -4.0625    1.7833    0.0000 N   0  0  0  0  0  0  0  0  0  0  0  0
   -2.6375    2.6083    0.0000 O   0  0  0  0  0  0  0  0  0  0  0  0
   -1.2208    2.6208    0.0000 Cl  0  0  0  0  0  0  0  0  0  0  0  0
   -1.9208    0.5500    0.0000 C   0  0  0  0  0  0  0  0  0  0  0  0
   -4.7833    1.3625    0.0000 C   0  0  0  0  0  0  0  0  0  0  0  0
   -3.3458    0.5375    0.0000 C   0  0  0  0  0  0  0  0  0  0  0  0
   -0.4958    1.3875    0.0000 C   0  0  0  0  0  0  0  0  0  0  0  0
   -1.2083    0.1458    0.0000 C   0  0  0  0  0  0  0  0  0  0  0  0
   -4.7833    0.5375    0.0000 C   0  0  0  0  0  0  0  0  0  0  0  0
   -4.0625    0.1250    0.0000 C   0  0  0  0  0  0  0  0  0  0  0  0
   -0.4875    0.5583    0.0000 C   0  0  0  0  0  0  0  0  0  0  0  0
  2  1  1  0  0  0  0
  3  1  1  0  0  0  0
  4  2  1  0  0  0  0
  5  3  2  0  0  0  0
  6  1  2  0  0  0  0
  7  4  1  0  0  0  0
  8  2  2  0  0  0  0
  9  5  1  0  0  0  0
 10  3  1  0  0  0  0
 11  4  2  0  0  0  0
 12  8  1  0  0  0  0
 13 14  1  0  0  0  0
 14 10  2  0  0  0  0
 15 12  2  0  0  0  0
  9 13  2  0  0  0  0
 11 15  1  0  0  0  0
M  END
>  <ID> (4000090)
4000090

>  <RB> (4000090)
2

>  <clogP> (4000090)
2.958000000000000e+000

>  <Supplier> (4000090)
ChemBridge

>  <tPSA> (4000090)
2.995999999999999e+001

>  <Hacc> (4000090)
2

>  <Hdon> (4000090)
0

>  <Name> (4000090)
(2-chlorophenyl)(pyridin-2-yl)methanone

>  <logSw> (4000090)
-1.495000000000000e+000

>  <Library> (4000090)
ExpressPick

$$$$
4000099


 15 16  0  0  0  0  0  0  0  0999 V2000
    2.5042   -0.5542    0.0000 C   0  0  0  0  0  0  0  0  0  0  0  0
    3.2167   -0.9625    0.0000 C   0  0  0  0  0  0  0  0  0  0  0  0
    1.7917   -0.9667    0.0000 C   0  0  0  0  0  0  0  0  0  0  0  0
    3.9250   -0.5417    0.0000 C   0  0  0  0  0  0  0  0  0  0  0  0
    2.5000    0.2708    0.0000 O   0  0  0  0  0  0  0  0  0  0  0  0
    0.3625   -0.9750    0.0000 N   0  0  0  0  0  0  0  0  0  0  0  0
    4.6417   -0.9500    0.0000 C   0  0  0  0  0  0  0  0  0  0  0  0
    1.0750   -0.5542    0.0000 C   0  0  0  0  0  0  0  0  0  0  0  0
    5.3542   -0.5292    0.0000 Cl  0  0  0  0  0  0  0  0  0  0  0  0
    3.2167   -1.7875    0.0000 C   0  0  0  0  0  0  0  0  0  0  0  0
    3.9292   -2.1917    0.0000 C   0  0  0  0  0  0  0  0  0  0  0  0
    1.7917   -1.8000    0.0000 C   0  0  0  0  0  0  0  0  0  0  0  0
    0.3625   -1.8000    0.0000 C   0  0  0  0  0  0  0  0  0  0  0  0
    4.6500   -1.7792    0.0000 C   0  0  0  0  0  0  0  0  0  0  0  0
    1.0750   -2.2125    0.0000 C   0  0  0  0  0  0  0  0  0  0  0  0
  2  1  1  0  0  0  0
  3  1  1  0  0  0  0
  4  2  1  0  0  0  0
  5  1  2  0  0  0  0
  6  8  1  0  0  0  0
  7  4  2  0  0  0  0
  8  3  2  0  0  0  0
  9  7  1  0  0  0  0
 10  2  2  0  0  0  0
 11 10  1  0  0  0  0
 12  3  1  0  0  0  0
 13 15  1  0  0  0  0
 14 11  2  0  0  0  0
 15 12  2  0  0  0  0
  6 13  2  0  0  0  0
  7 14  1  0  0  0  0
M  END
>  <ID> (4000099)
4000099

>  <RB> (4000099)
2

>  <clogP> (4000099)
2.818000000000000e+000

>  <Supplier> (4000099)
ChemBridge

>  <tPSA> (4000099)
2.995999999999999e+001

>  <Hacc> (4000099)
2

>  <Hdon> (4000099)
0

>  <Name> (4000099)
(3-chlorophenyl)(pyridin-3-yl)methanone

>  <logSw> (4000099)
-1.154000000000000e+000

>  <Library> (4000099)
ExpressPick

$$$$
4000103


 14 15  0  0  0  0  0  0  0  0999 V2000
    2.0792   -0.5417    0.0000 C   0  0  0  0  0  0  0  0  0  0  0  0
    2.0792    0.2750    0.0000 O   0  0  0  0  0  0  0  0  0  0  0  0
    4.2292   -1.7667    0.0000 N   0  0  0  0  0  0  0  0  0  0  0  0
   -0.0583   -1.7917    0.0000 N   0  0  0  0  0  0  0  0  0  0  0  0
    1.3667   -0.9625    0.0000 C   0  0  0  0  0  0  0  0  0  0  0  0
    2.8000   -0.9542    0.0000 C   0  0  0  0  0  0  0  0  0  0  0  0
    3.5125   -2.1875    0.0000 C   0  0  0  0  0  0  0  0  0  0  0  0
    0.6542   -2.2042    0.0000 C   0  0  0  0  0  0  0  0  0  0  0  0
    4.2167   -0.9417    0.0000 C   0  0  0  0  0  0  0  0  0  0  0  0
   -0.0583   -0.9625    0.0000 C   0  0  0  0  0  0  0  0  0  0  0  0
    0.6542   -0.5500    0.0000 C   0  0  0  0  0  0  0  0  0  0  0  0
    2.8000   -1.7792    0.0000 C   0  0  0  0  0  0  0  0  0  0  0  0
    3.5042   -0.5375    0.0000 C   0  0  0  0  0  0  0  0  0  0  0  0
    1.3667   -1.7917    0.0000 C   0  0  0  0  0  0  0  0  0  0  0  0
  2  1  2  0  0  0  0
  3  9  1  0  0  0  0
  4  8  1  0  0  0  0
  5  1  1  0  0  0  0
  6  1  1  0  0  0  0
  7 12  1  0  0  0  0
  8 14  2  0  0  0  0
  9 13  2  0  0  0  0
 10 11  1  0  0  0  0
 11  5  2  0  0  0  0
 12  6  2  0  0  0  0
 13  6  1  0  0  0  0
 14  5  1  0  0  0  0
  7  3  2  0  0  0  0
 10  4  2  0  0  0  0
M  END
>  <ID> (4000103)
4000103

>  <RB> (4000103)
2

>  <clogP> (4000103)
7.130000000000000e-001

>  <Supplier> (4000103)
ChemBridge

>  <tPSA> (4000103)
4.285000000000000e+001

>  <Hacc> (4000103)
3

>  <Hdon> (4000103)
0

>  <Name> (4000103)
dipyridin-4-ylmethanone

>  <logSw> (4000103)
-2.281000000000000e+000

>  <Library> (4000103)
ExpressPick

$$$$
4000105


 15 16  0  0  0  0  0  0  0  0999 V2000
    2.4917   -0.5417    0.0000 C   0  0  0  0  0  0  0  0  0  0  0  0
    3.2125   -0.9542    0.0000 C   0  0  0  0  0  0  0  0  0  0  0  0
    3.9167   -0.5375    0.0000 C   0  0  0  0  0  0  0  0  0  0  0  0
    2.4917    0.2750    0.0000 O   0  0  0  0  0  0  0  0  0  0  0  0
    0.3542   -1.7917    0.0000 N   0  0  0  0  0  0  0  0  0  0  0  0
    1.7792   -0.9625    0.0000 C   0  0  0  0  0  0  0  0  0  0  0  0
    4.6292   -0.9417    0.0000 C   0  0  0  0  0  0  0  0  0  0  0  0
    5.3417   -0.5250    0.0000 Cl  0  0  0  0  0  0  0  0  0  0  0  0
    3.2125   -1.7792    0.0000 C   0  0  0  0  0  0  0  0  0  0  0  0
    3.9250   -2.1875    0.0000 C   0  0  0  0  0  0  0  0  0  0  0  0
    1.0667   -2.2042    0.0000 C   0  0  0  0  0  0  0  0  0  0  0  0
    0.3542   -0.9625    0.0000 C   0  0  0  0  0  0  0  0  0  0  0  0
    1.7792   -1.7917    0.0000 C   0  0  0  0  0  0  0  0  0  0  0  0
    1.0667   -0.5500    0.0000 C   0  0  0  0  0  0  0  0  0  0  0  0
    4.6417   -1.7667    0.0000 C   0  0  0  0  0  0  0  0  0  0  0  0
  2  1  1  0  0  0  0
  3  2  1  0  0  0  0
  4  1  2  0  0  0  0
  5 12  2  0  0  0  0
  6  1  1  0  0  0  0
  7  3  2  0  0  0  0
  8  7  1  0  0  0  0
  9  2  2  0  0  0  0
 10  9  1  0  0  0  0
 11 13  2  0  0  0  0
 12 14  1  0  0  0  0
 13  6  1  0  0  0  0
 14  6  2  0  0  0  0
 15 10  2  0  0  0  0
  5 11  1  0  0  0  0
  7 15  1  0  0  0  0
M  END
>  <ID> (4000105)
4000105

>  <RB> (4000105)
2

>  <clogP> (4000105)
2.818000000000000e+000

>  <Supplier> (4000105)
ChemBridge

>  <tPSA> (4000105)
2.995999999999999e+001

>  <Hacc> (4000105)
2

>  <Hdon> (4000105)
0

>  <Name> (4000105)
(3-chlorophenyl)(pyridin-4-yl)methanone

>  <logSw> (4000105)
-2.281000000000000e+000

>  <Library> (4000105)
ExpressPick

$$$$
4000108


 18 19  0  0  0  0  0  0  0  0999 V2000
    2.1292   -0.4875    0.0000 C   0  0  0  0  0  0  0  0  0  0  0  0
    2.8417   -0.8917    0.0000 C   0  0  0  0  0  0  0  0  0  0  0  0
    2.1250    0.3333    0.0000 O   0  0  0  0  0  0  0  0  0  0  0  0
   -0.0125   -1.7292    0.0000 N   0  0  0  0  0  0  0  0  0  0  0  0
    1.4167   -0.9042    0.0000 C   0  0  0  0  0  0  0  0  0  0  0  0
    3.5500   -0.4792    0.0000 C   0  0  0  0  0  0  0  0  0  0  0  0
    2.8417   -1.7167    0.0000 C   0  0  0  0  0  0  0  0  0  0  0  0
    5.7042   -1.7042    0.0000 C   0  0  0  0  0  0  0  0  0  0  0  0
    4.2750   -1.7125    0.0000 C   0  0  0  0  0  0  0  0  0  0  0  0
    4.2667   -0.8792    0.0000 C   0  0  0  0  0  0  0  0  0  0  0  0
    3.5542   -2.1292    0.0000 C   0  0  0  0  0  0  0  0  0  0  0  0
    4.9917   -2.1250    0.0000 O   0  0  0  0  0  0  0  0  0  0  0  0
    6.4167   -2.1167    0.0000 O   0  0  0  0  0  0  0  0  0  0  0  0
   -0.0125   -0.9042    0.0000 C   0  0  0  0  0  0  0  0  0  0  0  0
    0.7000   -2.1417    0.0000 C   0  0  0  0  0  0  0  0  0  0  0  0
    0.7000   -0.4917    0.0000 C   0  0  0  0  0  0  0  0  0  0  0  0
    1.4167   -1.7292    0.0000 C   0  0  0  0  0  0  0  0  0  0  0  0
    7.1292   -1.7042    0.0000 C   0  0  0  0  0  0  0  0  0  0  0  0
  2  1  1  0  0  0  0
  3  1  2  0  0  0  0
  4 15  1  0  0  0  0
  5  1  1  0  0  0  0
  6  2  1  0  0  0  0
  7  2  2  0  0  0  0
  8 12  1  0  0  0  0
  9 11  2  0  0  0  0
 10  6  2  0  0  0  0
 11  7  1  0  0  0  0
 12  9  1  0  0  0  0
 13  8  1  0  0  0  0
 14 16  1  0  0  0  0
 15 17  2  0  0  0  0
 16  5  2  0  0  0  0
 17  5  1  0  0  0  0
 18 13  1  0  0  0  0
 14  4  2  0  0  0  0
 10  9  1  0  0  0  0
M  END
>  <ID> (4000108)
4000108

>  <RB> (4000108)
5

>  <clogP> (4000108)
1.529000000000000e+000

>  <Supplier> (4000108)
ChemBridge

>  <tPSA> (4000108)
4.842000000000000e+001

>  <Hacc> (4000108)
4

>  <Hdon> (4000108)
0

>  <Name> (4000108)
[4-(methoxymethoxy)phenyl](pyridin-4-yl)methanone

>  <logSw> (4000108)
-2.281000000000000e+000

>  <Library> (4000108)
ExpressPick

$$$$
4000141


 12 12  0  0  0  0  0  0  0  0999 V2000
    1.8375   -0.6042    0.0000 N   0  0  0  0  0  0  0  0  0  0  0  0
    2.5542   -0.1917    0.0000 N   0  0  0  0  0  0  0  0  0  0  0  0
    2.5542    0.6375    0.0000 C   0  0  0  0  0  0  0  0  0  0  0  0
    1.8375    1.0500    0.0000 C   0  0  0  0  0  0  0  0  0  0  0  0
    1.1250   -0.1917    0.0000 C   0  0  0  0  0  0  0  0  0  0  0  0
    1.1250    0.6375    0.0000 C   0  0  0  0  0  0  0  0  0  0  0  0
   -1.0333   -0.6292    0.0000 C   0  0  0  0  0  0  0  0  0  0  0  0
    3.2750    1.0583    0.0000 O   0  0  0  0  0  0  0  0  0  0  0  0
   -1.0208   -1.4542    0.0000 O   0  0  0  0  0  0  0  0  0  0  0  0
   -0.3208   -0.2042    0.0000 C   0  0  0  0  0  0  0  0  0  0  0  0
    0.4042   -0.6167    0.0000 C   0  0  0  0  0  0  0  0  0  0  0  0
   -1.7583   -0.2167    0.0000 O   0  0  0  0  0  0  0  0  0  0  0  0
  2  1  1  0  0  0  0
  3  2  1  0  0  0  0
  4  6  2  0  0  0  0
  5  1  2  0  0  0  0
  6  5  1  0  0  0  0
  7 10  1  0  0  0  0
  8  3  2  0  0  0  0
  9  7  2  0  0  0  0
 10 11  1  0  0  0  0
 11  5  1  0  0  0  0
 12  7  1  0  0  0  0
  3  4  1  0  0  0  0
M  END
>  <ID> (4000141)
4000141

>  <RB> (4000141)
3

>  <clogP> (4000141)
-8.780000000000001e-001

>  <Supplier> (4000141)
ChemBridge

>  <tPSA> (4000141)
8.305000000000004e+001

>  <Hacc> (4000141)
4

>  <Hdon> (4000141)
2

>  <Name> (4000141)
3-(6-oxo-1,6-dihydropyridazin-3-yl)propanoic acid

>  <logSw> (4000141)
-9.880000000000002e-001

>  <Library> (4000141)
ExpressPick

$$$$
4000235


 14 15  0  0  0  0  0  0  0  0999 V2000
    3.3000   -1.9417    0.0000 N   0  0  0  0  0  0  0  0  0  0  0  0
    2.5792   -2.3542    0.0000 N   0  0  0  0  0  0  0  0  0  0  0  0
    1.8667   -1.9417    0.0000 C   0  0  0  0  0  0  0  0  0  0  0  0
    3.3000   -1.1167    0.0000 C   0  0  0  0  0  0  0  0  0  0  0  0
    1.1542   -2.3542    0.0000 N   0  0  0  0  0  0  0  0  0  0  0  0
    2.5792   -0.7042    0.0000 C   0  0  0  0  0  0  0  0  0  0  0  0
    4.0167   -0.7042    0.0000 C   0  0  0  0  0  0  0  0  0  0  0  0
    1.8667   -1.1167    0.0000 C   0  0  0  0  0  0  0  0  0  0  0  0
    0.3292   -2.3542    0.0000 N   0  0  0  0  0  0  0  0  0  0  0  0
    4.7292   -1.1167    0.0000 C   0  0  0  0  0  0  0  0  0  0  0  0
    4.0167    0.1250    0.0000 C   0  0  0  0  0  0  0  0  0  0  0  0
    5.4417   -0.7042    0.0000 C   0  0  0  0  0  0  0  0  0  0  0  0
    4.7292    0.5375    0.0000 C   0  0  0  0  0  0  0  0  0  0  0  0
    5.4417    0.1250    0.0000 C   0  0  0  0  0  0  0  0  0  0  0  0
  2  1  1  0  0  0  0
  3  2  2  0  0  0  0
  4  1  2  0  0  0  0
  5  3  1  0  0  0  0
  6  4  1  0  0  0  0
  7  4  1  0  0  0  0
  8  6  2  0  0  0  0
  9  5  1  0  0  0  0
 10  7  2  0  0  0  0
 11  7  1  0  0  0  0
 12 10  1  0  0  0  0
 13 11  2  0  0  0  0
 14 13  1  0  0  0  0
  8  3  1  0  0  0  0
 12 14  2  0  0  0  0
M  END
>  <ID> (4000235)
4000235

>  <RB> (4000235)
2

>  <clogP> (4000235)
1.947000000000000e+000

>  <Supplier> (4000235)
ChemBridge

>  <tPSA> (4000235)
6.383000000000000e+001

>  <Hacc> (4000235)
2

>  <Hdon> (4000235)
2

>  <Name> (4000235)
3-hydrazino-6-phenylpyridazine

>  <logSw> (4000235)
-6.250000000000000e-001

>  <Library> (4000235)
ExpressPick

$$$$
4000237


 15 16  0  0  0  0  0  0  0  0999 V2000
    3.3000   -1.9417    0.0000 N   0  0  0  0  0  0  0  0  0  0  0  0
    2.5792   -2.3542    0.0000 N   0  0  0  0  0  0  0  0  0  0  0  0
    1.8667   -1.9417    0.0000 C   0  0  0  0  0  0  0  0  0  0  0  0
    3.3000   -1.1167    0.0000 C   0  0  0  0  0  0  0  0  0  0  0  0
    4.0167   -0.7042    0.0000 C   0  0  0  0  0  0  0  0  0  0  0  0
    1.1542   -2.3542    0.0000 N   0  0  0  0  0  0  0  0  0  0  0  0
    2.5792   -0.7042    0.0000 C   0  0  0  0  0  0  0  0  0  0  0  0
    4.0167    0.1250    0.0000 C   0  0  0  0  0  0  0  0  0  0  0  0
    4.7292   -1.1167    0.0000 C   0  0  0  0  0  0  0  0  0  0  0  0
    1.8667   -1.1167    0.0000 C   0  0  0  0  0  0  0  0  0  0  0  0
    0.3292   -2.3542    0.0000 N   0  0  0  0  0  0  0  0  0  0  0  0
    5.4417   -0.7042    0.0000 C   0  0  0  0  0  0  0  0  0  0  0  0
    4.7292    0.5375    0.0000 C   0  0  0  0  0  0  0  0  0  0  0  0
    5.4417    0.1250    0.0000 C   0  0  0  0  0  0  0  0  0  0  0  0
    6.1542    0.5458    0.0000 C   0  0  0  0  0  0  0  0  0  0  0  0
  2  1  1  0  0  0  0
  3  2  2  0  0  0  0
  4  1  2  0  0  0  0
  5  4  1  0  0  0  0
  6  3  1  0  0  0  0
  7  4  1  0  0  0  0
  8  5  1  0  0  0  0
  9  5  2  0  0  0  0
 10  7  2  0  0  0  0
 11  6  1  0  0  0  0
 12  9  1  0  0  0  0
 13  8  2  0  0  0  0
 14 12  2  0  0  0  0
 15 14  1  0  0  0  0
  3 10  1  0  0  0  0
 14 13  1  0  0  0  0
M  END
>  <ID> (4000237)
4000237

>  <RB> (4000237)
2

>  <clogP> (4000237)
2.446000000000000e+000

>  <Supplier> (4000237)
ChemBridge

>  <tPSA> (4000237)
6.383000000000000e+001

>  <Hacc> (4000237)
2

>  <Hdon> (4000237)
2

>  <Name> (4000237)
3-hydrazino-6-(4-methylphenyl)pyridazine

>  <logSw> (4000237)
-2.222000000000000e+000

>  <Library> (4000237)
ExpressPick

$$$$
4000320


 15 16  0  0  0  0  0  0  0  0999 V2000
   -0.3458   -0.2792    0.0000 N   0  0  3  0  0  0  0  0  0  0  0  0
   -0.3458   -1.1042    0.0000 C   0  0  0  0  0  0  0  0  0  0  0  0
    0.3542   -1.5167    0.0000 C   0  0  0  0  0  0  0  0  0  0  0  0
   -1.0583    0.1333    0.0000 C   0  0  0  0  0  0  0  0  0  0  0  0
    0.3667    0.1333    0.0000 C   0  0  0  0  0  0  0  0  0  0  0  0
   -0.3458    1.3708    0.0000 C   0  0  0  0  0  0  0  0  0  0  0  0
    0.3667    0.9583    0.0000 C   0  0  0  0  0  0  0  0  0  0  0  0
   -1.0583    0.9583    0.0000 C   0  0  0  0  0  0  0  0  0  0  0  0
   -0.3458    2.1958    0.0000 O   0  0  0  0  0  0  0  0  0  0  0  0
    0.3917   -2.3417    0.0000 C   0  0  0  0  0  0  0  0  0  0  0  0
    1.1000   -2.7417    0.0000 O   0  0  0  0  0  0  0  0  0  0  0  0
   -1.0583   -1.5292    0.0000 C   0  0  0  0  0  0  0  0  0  0  0  0
   -1.0583   -2.3542    0.0000 C   0  0  0  0  0  0  0  0  0  0  0  0
   -0.3250   -2.7667    0.0000 C   0  0  0  0  0  0  0  0  0  0  0  0
    1.7792   -2.3167    0.0000 C   0  0  0  0  0  0  0  0  0  0  0  0
  2  1  1  0  0  0  0
  3  2  2  0  0  0  0
  4  1  1  0  0  0  0
  5  1  1  0  0  0  0
  6  7  1  0  0  0  0
  7  5  1  0  0  0  0
  8  4  1  0  0  0  0
  9  6  2  0  0  0  0
 10  3  1  0  0  0  0
 11 10  1  0  0  0  0
 12  2  1  0  0  0  0
 13 12  2  0  0  0  0
 14 13  1  0  0  0  0
 15 11  1  0  0  0  0
  6  8  1  0  0  0  0
 10 14  2  0  0  0  0
M  END
>  <ID> (4000320)
4000320

>  <RB> (4000320)
1

>  <clogP> (4000320)
1.920000000000000e+000

>  <Supplier> (4000320)
ChemBridge

>  <tPSA> (4000320)
2.954000000000000e+001

>  <Hacc> (4000320)
2

>  <Hdon> (4000320)
0

>  <Name> (4000320)
1-(3-methoxyphenyl)piperidin-4-one

>  <logSw> (4000320)
-2.033000000000000e+000

>  <Library> (4000320)
ExpressPick

$$$$
4000321


 15 16  0  0  0  0  0  0  0  0999 V2000
   -0.3458   -0.2792    0.0000 N   0  0  3  0  0  0  0  0  0  0  0  0
   -0.3458   -1.1042    0.0000 C   0  0  0  0  0  0  0  0  0  0  0  0
    0.3667    0.1333    0.0000 C   0  0  0  0  0  0  0  0  0  0  0  0
   -1.0583    0.1333    0.0000 C   0  0  0  0  0  0  0  0  0  0  0  0
   -0.3458    1.3708    0.0000 C   0  0  0  0  0  0  0  0  0  0  0  0
   -1.0583    0.9583    0.0000 C   0  0  0  0  0  0  0  0  0  0  0  0
    0.3667    0.9583    0.0000 C   0  0  0  0  0  0  0  0  0  0  0  0
   -0.3458    2.1958    0.0000 O   0  0  0  0  0  0  0  0  0  0  0  0
   -1.0458   -1.5167    0.0000 C   0  0  0  0  0  0  0  0  0  0  0  0
    0.3750   -1.5250    0.0000 C   0  0  0  0  0  0  0  0  0  0  0  0
   -0.3625   -2.7667    0.0000 C   0  0  0  0  0  0  0  0  0  0  0  0
    0.3667   -2.3542    0.0000 C   0  0  0  0  0  0  0  0  0  0  0  0
   -1.0833   -2.3417    0.0000 C   0  0  0  0  0  0  0  0  0  0  0  0
   -0.3833   -3.5792    0.0000 O   0  0  0  0  0  0  0  0  0  0  0  0
   -1.0875   -3.9667    0.0000 C   0  0  0  0  0  0  0  0  0  0  0  0
  2  1  1  0  0  0  0
  3  1  1  0  0  0  0
  4  1  1  0  0  0  0
  5  6  1  0  0  0  0
  6  4  1  0  0  0  0
  7  3  1  0  0  0  0
  8  5  2  0  0  0  0
  9  2  2  0  0  0  0
 10  2  1  0  0  0  0
 11 12  1  0  0  0  0
 12 10  2  0  0  0  0
 13  9  1  0  0  0  0
 14 11  1  0  0  0  0
 15 14  1  0  0  0  0
  5  7  1  0  0  0  0
 13 11  2  0  0  0  0
M  END
>  <ID> (4000321)
4000321

>  <RB> (4000321)
1

>  <clogP> (4000321)
1.920000000000000e+000

>  <Supplier> (4000321)
ChemBridge

>  <tPSA> (4000321)
2.954000000000000e+001

>  <Hacc> (4000321)
2

>  <Hdon> (4000321)
0

>  <Name> (4000321)
1-(4-methoxyphenyl)piperidin-4-one

>  <logSw> (4000321)
-2.033000000000000e+000

>  <Library> (4000321)
ExpressPick

$$$$
4000323


 14 15  0  0  0  0  0  0  0  0999 V2000
   -0.3458   -0.2792    0.0000 N   0  0  3  0  0  0  0  0  0  0  0  0
   -0.3458   -1.1042    0.0000 C   0  0  0  0  0  0  0  0  0  0  0  0
    0.3667    0.1333    0.0000 C   0  0  0  0  0  0  0  0  0  0  0  0
   -1.0583    0.1333    0.0000 C   0  0  0  0  0  0  0  0  0  0  0  0
   -0.3458    1.3708    0.0000 C   0  0  0  0  0  0  0  0  0  0  0  0
   -1.0583    0.9583    0.0000 C   0  0  0  0  0  0  0  0  0  0  0  0
    0.3667    0.9583    0.0000 C   0  0  0  0  0  0  0  0  0  0  0  0
   -0.3458    2.1958    0.0000 O   0  0  0  0  0  0  0  0  0  0  0  0
    0.3667   -1.5250    0.0000 C   0  0  0  0  0  0  0  0  0  0  0  0
   -1.0458   -1.5167    0.0000 C   0  0  0  0  0  0  0  0  0  0  0  0
   -0.3708   -2.7625    0.0000 C   0  0  0  0  0  0  0  0  0  0  0  0
   -1.0833   -2.3375    0.0000 C   0  0  0  0  0  0  0  0  0  0  0  0
    0.3667   -2.3542    0.0000 C   0  0  0  0  0  0  0  0  0  0  0  0
   -0.3875   -3.5667    0.0000 Cl  0  0  0  0  0  0  0  0  0  0  0  0
  2  1  1  0  0  0  0
  3  1  1  0  0  0  0
  4  1  1  0  0  0  0
  5  6  1  0  0  0  0
  6  4  1  0  0  0  0
  7  3  1  0  0  0  0
  8  5  2  0  0  0  0
  9  2  1  0  0  0  0
 10  2  2  0  0  0  0
 11 12  2  0  0  0  0
 12 10  1  0  0  0  0
 13  9  2  0  0  0  0
 14 11  1  0  0  0  0
  5  7  1  0  0  0  0
 13 11  1  0  0  0  0
M  END
>  <ID> (4000323)
4000323

>  <RB> (4000323)
1

>  <clogP> (4000323)
2.783000000000000e+000

>  <Supplier> (4000323)
ChemBridge

>  <tPSA> (4000323)
2.031000000000000e+001

>  <Hacc> (4000323)
1

>  <Hdon> (4000323)
0

>  <Name> (4000323)
1-(4-chlorophenyl)piperidin-4-one

>  <logSw> (4000323)
-2.340000000000000e+000

>  <Library> (4000323)
ExpressPick

$$$$
4000324


 14 15  0  0  0  0  0  0  0  0999 V2000
   -0.3458   -0.2792    0.0000 N   0  0  3  0  0  0  0  0  0  0  0  0
   -0.3458   -1.1042    0.0000 C   0  0  0  0  0  0  0  0  0  0  0  0
    0.3667    0.1333    0.0000 C   0  0  0  0  0  0  0  0  0  0  0  0
   -1.0583    0.1333    0.0000 C   0  0  0  0  0  0  0  0  0  0  0  0
   -0.3458    1.3708    0.0000 C   0  0  0  0  0  0  0  0  0  0  0  0
   -1.0583   -1.5167    0.0000 C   0  0  0  0  0  0  0  0  0  0  0  0
    0.3667    0.9583    0.0000 C   0  0  0  0  0  0  0  0  0  0  0  0
   -1.0583    0.9583    0.0000 C   0  0  0  0  0  0  0  0  0  0  0  0
   -0.3458    2.1958    0.0000 O   0  0  0  0  0  0  0  0  0  0  0  0
   -1.7708   -1.1042    0.0000 F   0  0  0  0  0  0  0  0  0  0  0  0
    0.3667   -1.5167    0.0000 C   0  0  0  0  0  0  0  0  0  0  0  0
   -1.0583   -2.3417    0.0000 C   0  0  0  0  0  0  0  0  0  0  0  0
    0.3667   -2.3417    0.0000 C   0  0  0  0  0  0  0  0  0  0  0  0
   -0.3458   -2.7542    0.0000 C   0  0  0  0  0  0  0  0  0  0  0  0
  2  1  1  0  0  0  0
  3  1  1  0  0  0  0
  4  1  1  0  0  0  0
  5  8  1  0  0  0  0
  6  2  1  0  0  0  0
  7  3  1  0  0  0  0
  8  4  1  0  0  0  0
  9  5  2  0  0  0  0
 10  6  1  0  0  0  0
 11  2  2  0  0  0  0
 12  6  2  0  0  0  0
 13 11  1  0  0  0  0
 14 13  2  0  0  0  0
  5  7  1  0  0  0  0
 12 14  1  0  0  0  0
M  END
>  <ID> (4000324)
4000324

>  <RB> (4000324)
1

>  <clogP> (4000324)
2.210000000000000e+000

>  <Supplier> (4000324)
ChemBridge

>  <tPSA> (4000324)
2.031000000000000e+001

>  <Hacc> (4000324)
1

>  <Hdon> (4000324)
0

>  <Name> (4000324)
1-(2-fluorophenyl)piperidin-4-one

>  <logSw> (4000324)
-2.047000000000000e+000

>  <Library> (4000324)
ExpressPick

$$$$
4000326


 14 15  0  0  0  0  0  0  0  0999 V2000
   -0.3458   -0.2792    0.0000 N   0  0  3  0  0  0  0  0  0  0  0  0
   -0.3458   -1.1042    0.0000 C   0  0  0  0  0  0  0  0  0  0  0  0
    0.3667    0.1333    0.0000 C   0  0  0  0  0  0  0  0  0  0  0  0
   -1.0583    0.1333    0.0000 C   0  0  0  0  0  0  0  0  0  0  0  0
   -0.3458    1.3708    0.0000 C   0  0  0  0  0  0  0  0  0  0  0  0
   -1.0583    0.9583    0.0000 C   0  0  0  0  0  0  0  0  0  0  0  0
    0.3667    0.9583    0.0000 C   0  0  0  0  0  0  0  0  0  0  0  0
   -0.3458    2.1958    0.0000 O   0  0  0  0  0  0  0  0  0  0  0  0
   -1.0625   -1.5167    0.0000 C   0  0  0  0  0  0  0  0  0  0  0  0
    0.3667   -1.5167    0.0000 C   0  0  0  0  0  0  0  0  0  0  0  0
   -0.3458   -2.7542    0.0000 C   0  0  0  0  0  0  0  0  0  0  0  0
    0.3667   -2.3417    0.0000 C   0  0  0  0  0  0  0  0  0  0  0  0
   -1.0625   -2.3417    0.0000 C   0  0  0  0  0  0  0  0  0  0  0  0
   -0.3458   -3.5792    0.0000 F   0  0  0  0  0  0  0  0  0  0  0  0
  2  1  1  0  0  0  0
  3  1  1  0  0  0  0
  4  1  1  0  0  0  0
  5  6  1  0  0  0  0
  6  4  1  0  0  0  0
  7  3  1  0  0  0  0
  8  5  2  0  0  0  0
  9  2  2  0  0  0  0
 10  2  1  0  0  0  0
 11 12  1  0  0  0  0
 12 10  2  0  0  0  0
 13  9  1  0  0  0  0
 14 11  1  0  0  0  0
  5  7  1  0  0  0  0
 11 13  2  0  0  0  0
M  END
>  <ID> (4000326)
4000326

>  <RB> (4000326)
1

>  <clogP> (4000326)
2.210000000000000e+000

>  <Supplier> (4000326)
ChemBridge

>  <tPSA> (4000326)
2.031000000000000e+001

>  <Hacc> (4000326)
1

>  <Hdon> (4000326)
0

>  <Name> (4000326)
1-(4-fluorophenyl)piperidin-4-one

>  <logSw> (4000326)
-2.047000000000000e+000

>  <Library> (4000326)
ExpressPick

$$$$
4000329


 16 18  0  0  0  0  0  0  0  0999 V2000
   -0.3458   -0.2792    0.0000 N   0  0  3  0  0  0  0  0  0  0  0  0
   -0.3458   -1.1042    0.0000 C   0  0  0  0  0  0  0  0  0  0  0  0
   -1.0583   -1.5167    0.0000 C   0  0  0  0  0  0  0  0  0  0  0  0
   -1.0583   -2.3375    0.0000 C   0  0  0  0  0  0  0  0  0  0  0  0
   -0.3458   -2.7542    0.0000 C   0  0  0  0  0  0  0  0  0  0  0  0
   -1.6833   -2.8917    0.0000 O   0  0  0  0  0  0  0  0  0  0  0  0
   -0.5208   -3.5625    0.0000 O   0  0  0  0  0  0  0  0  0  0  0  0
   -1.0583    0.1333    0.0000 C   0  0  0  0  0  0  0  0  0  0  0  0
    0.3667    0.1333    0.0000 C   0  0  0  0  0  0  0  0  0  0  0  0
   -0.3458    1.3708    0.0000 C   0  0  0  0  0  0  0  0  0  0  0  0
   -1.3458   -3.6500    0.0000 C   0  0  0  0  0  0  0  0  0  0  0  0
    0.3750   -1.5167    0.0000 C   0  0  0  0  0  0  0  0  0  0  0  0
    0.3667    0.9583    0.0000 C   0  0  0  0  0  0  0  0  0  0  0  0
   -1.0583    0.9583    0.0000 C   0  0  0  0  0  0  0  0  0  0  0  0
    0.3667   -2.3417    0.0000 C   0  0  0  0  0  0  0  0  0  0  0  0
   -0.3458    2.1958    0.0000 O   0  0  0  0  0  0  0  0  0  0  0  0
  2  1  1  0  0  0  0
  3  2  2  0  0  0  0
  4  3  1  0  0  0  0
  5 15  1  0  0  0  0
  6  4  1  0  0  0  0
  7  5  1  0  0  0  0
  8  1  1  0  0  0  0
  9  1  1  0  0  0  0
 10 13  1  0  0  0  0
 11  6  1  0  0  0  0
 12  2  1  0  0  0  0
 13  9  1  0  0  0  0
 14  8  1  0  0  0  0
 15 12  2  0  0  0  0
 16 10  2  0  0  0  0
 10 14  1  0  0  0  0
  4  5  2  0  0  0  0
 11  7  1  0  0  0  0
M  END
>  <ID> (4000329)
4000329

>  <RB> (4000329)
1

>  <clogP> (4000329)
1.490000000000000e+000

>  <Supplier> (4000329)
ChemBridge

>  <tPSA> (4000329)
3.877000000000000e+001

>  <Hacc> (4000329)
3

>  <Hdon> (4000329)
0

>  <Name> (4000329)
1-(1,3-benzodioxol-5-yl)piperidin-4-one

>  <logSw> (4000329)
-2.118000000000000e+000

>  <Library> (4000329)
ExpressPick

$$$$
4000331


 14 15  0  0  0  0  0  0  0  0999 V2000
   -0.3458   -0.2792    0.0000 N   0  0  3  0  0  0  0  0  0  0  0  0
   -0.3458   -1.1042    0.0000 C   0  0  0  0  0  0  0  0  0  0  0  0
    0.3667    0.1333    0.0000 C   0  0  0  0  0  0  0  0  0  0  0  0
   -1.0583    0.1333    0.0000 C   0  0  0  0  0  0  0  0  0  0  0  0
   -0.3458    1.3708    0.0000 C   0  0  0  0  0  0  0  0  0  0  0  0
   -1.0583    0.9583    0.0000 C   0  0  0  0  0  0  0  0  0  0  0  0
    0.3667    0.9583    0.0000 C   0  0  0  0  0  0  0  0  0  0  0  0
   -0.3458    2.1958    0.0000 O   0  0  0  0  0  0  0  0  0  0  0  0
   -1.0458   -1.5167    0.0000 C   0  0  0  0  0  0  0  0  0  0  0  0
    0.3667   -1.5250    0.0000 C   0  0  0  0  0  0  0  0  0  0  0  0
    0.3667   -2.3500    0.0000 C   0  0  0  0  0  0  0  0  0  0  0  0
   -1.0750   -2.3375    0.0000 C   0  0  0  0  0  0  0  0  0  0  0  0
   -0.3625   -2.7625    0.0000 C   0  0  0  0  0  0  0  0  0  0  0  0
   -0.3833   -3.5667    0.0000 C   0  0  0  0  0  0  0  0  0  0  0  0
  2  1  1  0  0  0  0
  3  1  1  0  0  0  0
  4  1  1  0  0  0  0
  5  6  1  0  0  0  0
  6  4  1  0  0  0  0
  7  3  1  0  0  0  0
  8  5  2  0  0  0  0
  9  2  2  0  0  0  0
 10  2  1  0  0  0  0
 11 10  2  0  0  0  0
 12  9  1  0  0  0  0
 13 11  1  0  0  0  0
 14 13  1  0  0  0  0
  5  7  1  0  0  0  0
 12 13  2  0  0  0  0
M  END
>  <ID> (4000331)
4000331

>  <RB> (4000331)
1

>  <clogP> (4000331)
2.398000000000000e+000

>  <Supplier> (4000331)
ChemBridge

>  <tPSA> (4000331)
2.031000000000000e+001

>  <Hacc> (4000331)
1

>  <Hdon> (4000331)
0

>  <Name> (4000331)
1-(4-methylphenyl)piperidin-4-one

>  <logSw> (4000331)
-2.068000000000000e+000

>  <Library> (4000331)
ExpressPick

$$$$
4000342


 15 16  0  0  0  0  0  0  0  0999 V2000
   -0.3458   -0.2792    0.0000 N   0  0  3  0  0  0  0  0  0  0  0  0
   -0.3458   -1.1042    0.0000 C   0  0  0  0  0  0  0  0  0  0  0  0
    0.3750   -1.5167    0.0000 C   0  0  0  0  0  0  0  0  0  0  0  0
   -1.0583    0.1333    0.0000 C   0  0  0  0  0  0  0  0  0  0  0  0
    0.3667    0.1333    0.0000 C   0  0  0  0  0  0  0  0  0  0  0  0
   -0.3458    1.3708    0.0000 C   0  0  0  0  0  0  0  0  0  0  0  0
    0.3667   -2.3417    0.0000 C   0  0  0  0  0  0  0  0  0  0  0  0
   -1.0583    0.9583    0.0000 C   0  0  0  0  0  0  0  0  0  0  0  0
    0.3667    0.9583    0.0000 C   0  0  0  0  0  0  0  0  0  0  0  0
   -0.3458    2.1958    0.0000 O   0  0  0  0  0  0  0  0  0  0  0  0
   -1.0583   -1.5167    0.0000 C   0  0  0  0  0  0  0  0  0  0  0  0
    1.0875   -1.1042    0.0000 C   0  0  0  0  0  0  0  0  0  0  0  0
   -1.0583   -2.3375    0.0000 C   0  0  0  0  0  0  0  0  0  0  0  0
   -0.3458   -2.7542    0.0000 C   0  0  0  0  0  0  0  0  0  0  0  0
    1.0875   -2.7542    0.0000 C   0  0  0  0  0  0  0  0  0  0  0  0
  2  1  1  0  0  0  0
  3  2  1  0  0  0  0
  4  1  1  0  0  0  0
  5  1  1  0  0  0  0
  6  9  1  0  0  0  0
  7  3  2  0  0  0  0
  8  4  1  0  0  0  0
  9  5  1  0  0  0  0
 10  6  2  0  0  0  0
 11  2  2  0  0  0  0
 12  3  1  0  0  0  0
 13 11  1  0  0  0  0
 14 13  2  0  0  0  0
 15  7  1  0  0  0  0
  6  8  1  0  0  0  0
  7 14  1  0  0  0  0
M  END
>  <ID> (4000342)
4000342

>  <RB> (4000342)
1

>  <clogP> (4000342)
2.847000000000000e+000

>  <Supplier> (4000342)
ChemBridge

>  <tPSA> (4000342)
2.031000000000000e+001

>  <Hacc> (4000342)
1

>  <Hdon> (4000342)
0

>  <Name> (4000342)
1-(2,3-dimethylphenyl)piperidin-4-one

>  <logSw> (4000342)
-1.967000000000000e+000

>  <Library> (4000342)
ExpressPick

$$$$
4000478


  9  9  0  0  0  0  0  0  0  0999 V2000
    4.6917    0.6333    0.0000 O   0  0  0  0  0  0  0  0  0  0  0  0
   -1.4833    3.0208    0.0000 N   0  0  0  0  0  0  0  0  0  0  0  0
    2.2417    0.8583    0.0000 C   0  0  3  0  0  0  0  0  0  0  0  0
    5.2500   -1.7750    0.0000 C   0  0  0  0  0  0  0  0  0  0  0  0
    0.9792    3.0208    0.0000 C   0  0  0  0  0  0  0  0  0  0  0  0
   -2.7750    0.9583    0.0000 C   0  0  0  0  0  0  0  0  0  0  0  0
    1.2875   -1.3917    0.0000 C   0  0  0  0  0  0  0  0  0  0  0  0
   -5.2500    1.0208    0.0000 C   0  0  0  0  0  0  0  0  0  0  0  0
    3.1125   -3.0042    0.0000 C   0  0  0  0  0  0  0  0  0  0  0  0
  2  5  1  0  0  0  0
  3  1  1  0  0  0  0
  4  1  1  0  0  0  0
  5  3  1  0  0  0  0
  6  2  1  0  0  0  0
  7  3  1  0  0  0  0
  8  6  1  0  0  0  0
  9  4  1  0  0  0  0
  9  7  1  0  0  0  0
M  END
>  <ID> (4000478)
4000478

>  <RB> (4000478)
1

>  <clogP> (4000478)
7.300000000000000e-001

>  <Supplier> (4000478)
ChemBridge

>  <tPSA> (4000478)
2.126000000000000e+001

>  <Hacc> (4000478)
2

>  <Hdon> (4000478)
1

>  <Name> (4000478)
N-(tetrahydrofuran-2-ylmethyl)ethanamine

>  <logSw> (4000478)
1.460000000000000e-001

>  <Library> (4000478)
ExpressPick

>  <stereochemistry> (4000478)
unknown

$$$$
4001108


 15 16  0  0  0  0  0  0  0  0999 V2000
    3.7750   -1.4292    0.0000 N   0  0  3  0  0  0  0  0  0  0  0  0
    2.4042   -1.0167    0.0000 C   0  0  0  0  0  0  0  0  0  0  0  0
    2.9667   -1.6167    0.0000 C   0  0  0  0  0  0  0  0  0  0  0  0
    1.6042   -1.2000    0.0000 C   0  0  0  0  0  0  0  0  0  0  0  0
    5.3875   -1.0542    0.0000 O   0  0  0  0  0  0  0  0  0  0  0  0
    4.0167   -0.6417    0.0000 C   0  0  0  0  0  0  0  0  0  0  0  0
    4.3417   -2.0375    0.0000 C   0  0  0  0  0  0  0  0  0  0  0  0
    0.5542   -2.1917    0.0000 O   0  0  0  0  0  0  0  0  0  0  0  0
    1.3667   -2.0000    0.0000 C   0  0  0  0  0  0  0  0  0  0  0  0
    2.6500   -0.2167    0.0000 C   0  0  0  0  0  0  0  0  0  0  0  0
    5.1417   -1.8500    0.0000 C   0  0  0  0  0  0  0  0  0  0  0  0
    4.8167   -0.4542    0.0000 C   0  0  0  0  0  0  0  0  0  0  0  0
    1.0417   -0.5917    0.0000 C   0  0  0  0  0  0  0  0  0  0  0  0
    2.0792    0.3833    0.0000 C   0  0  0  0  0  0  0  0  0  0  0  0
    1.2792    0.1958    0.0000 C   0  0  0  0  0  0  0  0  0  0  0  0
  2  3  1  0  0  0  0
  3  1  1  0  0  0  0
  4  2  1  0  0  0  0
  5 11  1  0  0  0  0
  6  1  1  0  0  0  0
  7  1  1  0  0  0  0
  8  9  1  0  0  0  0
  9  4  1  0  0  0  0
 10  2  2  0  0  0  0
 11  7  1  0  0  0  0
 12  6  1  0  0  0  0
 13  4  2  0  0  0  0
 14 10  1  0  0  0  0
 15 14  2  0  0  0  0
  5 12  1  0  0  0  0
 13 15  1  0  0  0  0
M  END
>  <ID> (4001108)
4001108

>  <RB> (4001108)
3

>  <clogP> (4001108)
8.010000000000002e-001

>  <Supplier> (4001108)
ChemBridge

>  <tPSA> (4001108)
3.270000000000000e+001

>  <Hacc> (4001108)
3

>  <Hdon> (4001108)
1

>  <Name> (4001108)
[2-(4-morpholinylmethyl)phenyl]methanol hydrochloride

>  <logSw> (4001108)
2.400000000000000e-001

>  <Library> (4001108)
ExpressPick

$$$$
4001112


 15 16  0  0  0  0  0  0  0  0999 V2000
    3.9750   -1.4917    0.0000 N   0  0  3  0  0  0  0  0  0  0  0  0
    2.5917   -1.1292    0.0000 C   0  0  0  0  0  0  0  0  0  0  0  0
    3.1792   -1.7042    0.0000 C   0  0  0  0  0  0  0  0  0  0  0  0
    1.8000   -1.3500    0.0000 C   0  0  0  0  0  0  0  0  0  0  0  0
    4.5667   -2.0667    0.0000 C   0  0  0  0  0  0  0  0  0  0  0  0
    4.1792   -0.6917    0.0000 C   0  0  0  0  0  0  0  0  0  0  0  0
    0.7917   -2.3792    0.0000 O   0  0  0  0  0  0  0  0  0  0  0  0
    1.5917   -2.1542    0.0000 C   0  0  0  0  0  0  0  0  0  0  0  0
    2.8042   -0.3292    0.0000 C   0  0  0  0  0  0  0  0  0  0  0  0
    1.2042   -0.7667    0.0000 C   0  0  0  0  0  0  0  0  0  0  0  0
    4.9792   -0.4667    0.0000 C   0  0  0  0  0  0  0  0  0  0  0  0
    5.3625   -1.8542    0.0000 C   0  0  0  0  0  0  0  0  0  0  0  0
    2.2125    0.2500    0.0000 C   0  0  0  0  0  0  0  0  0  0  0  0
    1.4167    0.0333    0.0000 C   0  0  0  0  0  0  0  0  0  0  0  0
    5.5667   -1.0500    0.0000 C   0  0  0  0  0  0  0  0  0  0  0  0
  2  3  1  0  0  0  0
  3  1  1  0  0  0  0
  4  2  1  0  0  0  0
  5  1  1  0  0  0  0
  6  1  1  0  0  0  0
  7  8  1  0  0  0  0
  8  4  1  0  0  0  0
  9  2  2  0  0  0  0
 10  4  2  0  0  0  0
 11  6  1  0  0  0  0
 12  5  1  0  0  0  0
 13  9  1  0  0  0  0
 14 13  2  0  0  0  0
 15 11  1  0  0  0  0
 12 15  1  0  0  0  0
 10 14  1  0  0  0  0
M  END
>  <ID> (4001112)
4001112

>  <RB> (4001112)
3

>  <clogP> (4001112)
2.081000000000000e+000

>  <Supplier> (4001112)
ChemBridge

>  <tPSA> (4001112)
2.347000000000000e+001

>  <Hacc> (4001112)
2

>  <Hdon> (4001112)
1

>  <Name> (4001112)
[2-(1-piperidinylmethyl)phenyl]methanol hydrochloride

>  <logSw> (4001112)
-3.140000000000000e-001

>  <Library> (4001112)
ExpressPick

$$$$
4001115


 16 17  0  0  0  0  0  0  0  0999 V2000
    3.6417   -1.1917    0.0000 N   0  0  3  0  0  0  0  0  0  0  0  0
    2.3542   -0.5792    0.0000 C   0  0  0  0  0  0  0  0  0  0  0  0
    2.8167   -1.2542    0.0000 C   0  0  0  0  0  0  0  0  0  0  0  0
    1.5292   -0.6417    0.0000 C   0  0  0  0  0  0  0  0  0  0  0  0
    4.0000   -0.4500    0.0000 C   0  0  0  0  0  0  0  0  0  0  0  0
    4.0042   -1.9417    0.0000 C   0  0  0  0  0  0  0  0  0  0  0  0
    0.3500   -1.4667    0.0000 O   0  0  0  0  0  0  0  0  0  0  0  0
    1.1792   -1.4000    0.0000 C   0  0  0  0  0  0  0  0  0  0  0  0
    2.7125    0.1708    0.0000 C   0  0  0  0  0  0  0  0  0  0  0  0
    1.0625    0.0458    0.0000 C   0  0  0  0  0  0  0  0  0  0  0  0
    4.8167   -2.1125    0.0000 C   0  0  0  0  0  0  0  0  0  0  0  0
    4.8042   -0.2625    0.0000 C   0  0  0  0  0  0  0  0  0  0  0  0
    2.2417    0.8500    0.0000 C   0  0  0  0  0  0  0  0  0  0  0  0
    1.4167    0.7833    0.0000 C   0  0  0  0  0  0  0  0  0  0  0  0
    5.4542   -0.7750    0.0000 C   0  0  0  0  0  0  0  0  0  0  0  0
    5.4417   -1.6000    0.0000 C   0  0  0  0  0  0  0  0  0  0  0  0
  2  3  1  0  0  0  0
  3  1  1  0  0  0  0
  4  2  1  0  0  0  0
  5  1  1  0  0  0  0
  6  1  1  0  0  0  0
  7  8  1  0  0  0  0
  8  4  1  0  0  0  0
  9  2  2  0  0  0  0
 10  4  2  0  0  0  0
 11  6  1  0  0  0  0
 12  5  1  0  0  0  0
 13  9  1  0  0  0  0
 14 13  2  0  0  0  0
 15 12  1  0  0  0  0
 16 11  1  0  0  0  0
 16 15  1  0  0  0  0
 10 14  1  0  0  0  0
M  END
>  <ID> (4001115)
4001115

>  <RB> (4001115)
3

>  <clogP> (4001115)
2.640000000000000e+000

>  <Supplier> (4001115)
ChemBridge

>  <tPSA> (4001115)
2.347000000000000e+001

>  <Hacc> (4001115)
2

>  <Hdon> (4001115)
1

>  <Name> (4001115)
[2-(azepan-1-ylmethyl)phenyl]methanol

>  <logSw> (4001115)
-2.082000000000000e+000

>  <Library> (4001115)
ExpressPick

$$$$
4001118


 16 17  0  0  0  0  0  0  0  0999 V2000
    3.7167   -0.9292    0.0000 N   0  0  3  0  0  0  0  0  0  0  0  0
    2.3917   -0.4167    0.0000 C   0  0  0  0  0  0  0  0  0  0  0  0
    2.9042   -1.0542    0.0000 C   0  0  0  0  0  0  0  0  0  0  0  0
    1.5792   -0.5375    0.0000 C   0  0  0  0  0  0  0  0  0  0  0  0
    4.0250   -0.1667    0.0000 C   0  0  0  0  0  0  0  0  0  0  0  0
    4.2417   -1.5792    0.0000 C   0  0  0  0  0  0  0  0  0  0  0  0
    5.0542   -1.4542    0.0000 C   0  0  0  0  0  0  0  0  0  0  0  0
    4.8417   -0.0292    0.0000 C   0  0  0  0  0  0  0  0  0  0  0  0
    5.3542   -0.6875    0.0000 C   0  0  3  0  0  0  0  0  0  0  0  0
    0.4542   -1.4417    0.0000 O   0  0  0  0  0  0  0  0  0  0  0  0
    1.2792   -1.3167    0.0000 C   0  0  0  0  0  0  0  0  0  0  0  0
    2.6917    0.3583    0.0000 C   0  0  0  0  0  0  0  0  0  0  0  0
    1.0542    0.1083    0.0000 C   0  0  0  0  0  0  0  0  0  0  0  0
    6.1792   -0.5542    0.0000 C   0  0  0  0  0  0  0  0  0  0  0  0
    2.1750    1.0000    0.0000 C   0  0  0  0  0  0  0  0  0  0  0  0
    1.3542    0.8750    0.0000 C   0  0  0  0  0  0  0  0  0  0  0  0
  2  3  1  0  0  0  0
  3  1  1  0  0  0  0
  4  2  1  0  0  0  0
  5  1  1  0  0  0  0
  6  1  1  0  0  0  0
  7  6  1  0  0  0  0
  8  5  1  0  0  0  0
  9  7  1  0  0  0  0
 10 11  1  0  0  0  0
 11  4  1  0  0  0  0
 12  2  2  0  0  0  0
 13  4  2  0  0  0  0
 14  9  1  0  0  0  0
 15 12  1  0  0  0  0
 16 15  2  0  0  0  0
  8  9  1  0  0  0  0
 13 16  1  0  0  0  0
M  END
>  <ID> (4001118)
4001118

>  <RB> (4001118)
3

>  <clogP> (4001118)
2.600000000000000e+000

>  <Supplier> (4001118)
ChemBridge

>  <tPSA> (4001118)
2.347000000000000e+001

>  <Hacc> (4001118)
2

>  <Hdon> (4001118)
1

>  <Name> (4001118)
{2-[(4-methyl-1-piperidinyl)methyl]phenyl}methanol hydrochloride

>  <logSw> (4001118)
-2.013000000000000e+000

>  <Library> (4001118)
ExpressPick

$$$$
4001120


 14 15  0  0  0  0  0  0  0  0999 V2000
    4.2292   -1.5125    0.0000 N   0  0  3  0  0  0  0  0  0  0  0  0
    2.8667   -1.0792    0.0000 C   0  0  0  0  0  0  0  0  0  0  0  0
    3.4250   -1.6875    0.0000 C   0  0  0  0  0  0  0  0  0  0  0  0
    2.0625   -1.2542    0.0000 C   0  0  0  0  0  0  0  0  0  0  0  0
    4.4792   -0.7250    0.0000 C   0  0  0  0  0  0  0  0  0  0  0  0
    4.9042   -1.9917    0.0000 C   0  0  0  0  0  0  0  0  0  0  0  0
    1.0042   -2.2292    0.0000 O   0  0  0  0  0  0  0  0  0  0  0  0
    1.8167   -2.0542    0.0000 C   0  0  0  0  0  0  0  0  0  0  0  0
    3.1167   -0.2917    0.0000 C   0  0  0  0  0  0  0  0  0  0  0  0
    1.5042   -0.6417    0.0000 C   0  0  0  0  0  0  0  0  0  0  0  0
    5.5625   -1.5042    0.0000 C   0  0  0  0  0  0  0  0  0  0  0  0
    5.3125   -0.7167    0.0000 C   0  0  0  0  0  0  0  0  0  0  0  0
    2.5542    0.3208    0.0000 C   0  0  0  0  0  0  0  0  0  0  0  0
    1.7542    0.1458    0.0000 C   0  0  0  0  0  0  0  0  0  0  0  0
  2  3  1  0  0  0  0
  3  1  1  0  0  0  0
  4  2  1  0  0  0  0
  5  1  1  0  0  0  0
  6  1  1  0  0  0  0
  7  8  1  0  0  0  0
  8  4  1  0  0  0  0
  9  2  2  0  0  0  0
 10  4  2  0  0  0  0
 11  6  1  0  0  0  0
 12  5  1  0  0  0  0
 13  9  1  0  0  0  0
 14 13  2  0  0  0  0
 12 11  1  0  0  0  0
 14 10  1  0  0  0  0
M  END
>  <ID> (4001120)
4001120

>  <RB> (4001120)
3

>  <clogP> (4001120)
1.520000000000000e+000

>  <Supplier> (4001120)
ChemBridge

>  <tPSA> (4001120)
2.347000000000000e+001

>  <Hacc> (4001120)
2

>  <Hdon> (4001120)
1

>  <Name> (4001120)
[2-(pyrrolidin-1-ylmethyl)phenyl]methanol

>  <logSw> (4001120)
-1.039000000000000e+000

>  <Library> (4001120)
ExpressPick

$$$$
4001148


 11 11  0  0  0  0  0  0  0  0999 V2000
    3.5125   -0.7042    0.0000 N   0  0  3  0  0  0  0  0  0  0  0  0
    4.6792   -1.8667    0.0000 O   0  0  0  0  0  0  0  0  0  0  0  0
    2.9375   -0.1250    0.0000 C   0  0  0  0  0  0  0  0  0  0  0  0
    4.3042   -0.4917    0.0000 C   0  0  0  0  0  0  0  0  0  0  0  0
    3.2917   -1.5042    0.0000 C   0  0  0  0  0  0  0  0  0  0  0  0
    0.2042    0.6583    0.0000 O   0  0  0  0  0  0  0  0  0  0  0  0
    3.8750   -2.0875    0.0000 C   0  0  0  0  0  0  0  0  0  0  0  0
    4.8917   -1.0792    0.0000 C   0  0  0  0  0  0  0  0  0  0  0  0
    0.7792    0.0625    0.0000 C   0  0  0  0  0  0  0  0  0  0  0  0
    2.1417   -0.3292    0.0000 C   0  0  0  0  0  0  0  0  0  0  0  0
    1.5667    0.2625    0.0000 C   0  0  0  0  0  0  0  0  0  0  0  0
  2  7  1  0  0  0  0
  3  1  1  0  0  0  0
  4  1  1  0  0  0  0
  5  1  1  0  0  0  0
  6  9  1  0  0  0  0
  7  5  1  0  0  0  0
  8  4  1  0  0  0  0
  9 11  1  0  0  0  0
 10  3  1  0  0  0  0
 11 10  1  0  0  0  0
  2  8  1  0  0  0  0
M  END
>  <ID> (4001148)
4001148

>  <RB> (4001148)
4

>  <clogP> (4001148)
-2.330000000000000e-001

>  <Supplier> (4001148)
ChemBridge

>  <tPSA> (4001148)
3.270000000000000e+001

>  <Hacc> (4001148)
3

>  <Hdon> (4001148)
1

>  <Name> (4001148)
4-morpholin-4-ylbutan-1-ol

>  <logSw> (4001148)
-8.880000000000002e-001

>  <Library> (4001148)
ExpressPick

$$$$
4001285


 14 15  0  0  0  0  0  0  0  0999 V2000
    2.7042   -0.1792    0.0000 C   0  0  0  0  0  0  0  0  0  0  0  0
    1.9375   -2.1042    0.0000 N   0  0  3  0  0  0  0  0  0  0  0  0
    4.7792   -0.3542    0.0000 N   0  0  0  0  0  0  0  0  0  0  0  0
    1.6042    1.5708    0.0000 C   0  0  3  0  0  0  0  0  0  0  0  0
    5.2500   -2.3375    0.0000 C   0  0  0  0  0  0  0  0  0  0  0  0
    3.5167   -3.4042    0.0000 C   0  0  0  0  0  0  0  0  0  0  0  0
   -1.1208    1.5708    0.0000 C   0  0  0  0  0  0  0  0  0  0  0  0
    2.6292    3.4208    0.0000 O   0  0  0  0  0  0  0  0  0  0  0  0
   -0.1000   -2.6167    0.0000 C   0  0  0  0  0  0  0  0  0  0  0  0
   -2.1458    3.3708    0.0000 C   0  0  0  0  0  0  0  0  0  0  0  0
   -2.1708   -0.2042    0.0000 C   0  0  0  0  0  0  0  0  0  0  0  0
   -4.2333   -0.2042    0.0000 C   0  0  0  0  0  0  0  0  0  0  0  0
   -4.2083    3.4000    0.0000 C   0  0  0  0  0  0  0  0  0  0  0  0
   -5.2500    1.5708    0.0000 C   0  0  0  0  0  0  0  0  0  0  0  0
  2  1  1  0  0  0  0
  3  1  2  0  0  0  0
  4  1  1  0  0  0  0
  5  3  1  0  0  0  0
  6  2  1  0  0  0  0
  7  4  1  0  0  0  0
  8  4  1  0  0  0  0
  9  2  1  0  0  0  0
 10  7  2  0  0  0  0
 11  7  1  0  0  0  0
 12 11  2  0  0  0  0
 13 10  1  0  0  0  0
 14 12  1  0  0  0  0
  5  6  2  0  0  0  0
 13 14  2  0  0  0  0
M  END
>  <ID> (4001285)
4001285

>  <RB> (4001285)
2

>  <clogP> (4001285)
3.000000000000000e-001

>  <Supplier> (4001285)
ChemBridge

>  <tPSA> (4001285)
3.805000000000000e+001

>  <Hacc> (4001285)
2

>  <Hdon> (4001285)
1

>  <Name> (4001285)
(1-methyl-1H-imidazol-2-yl)(phenyl)methanol

>  <logSw> (4001285)
-1.704000000000000e+000

>  <Library> (4001285)
ExpressPick

>  <stereochemistry> (4001285)
unknown

$$$$
4001443


 14 15  0  0  0  0  0  0  0  0999 V2000
    1.3000   -0.1667    0.0000 C   0  0  0  0  0  0  0  0  0  0  0  0
    3.1542   -0.3667    0.0000 O   0  0  0  0  0  0  0  0  0  0  0  0
    0.5292   -1.8542    0.0000 C   0  0  0  0  0  0  0  0  0  0  0  0
    0.3542    1.4625    0.0000 C   0  0  3  0  0  0  0  0  0  0  0  0
    3.5000   -2.2292    0.0000 C   0  0  0  0  0  0  0  0  0  0  0  0
    1.8667   -3.1167    0.0000 C   0  0  0  0  0  0  0  0  0  0  0  0
   -1.5000    1.4625    0.0000 C   0  0  0  0  0  0  0  0  0  0  0  0
   -4.2958    3.1208    0.0000 N   0  0  0  0  0  0  0  0  0  0  0  0
    1.2875    3.0958    0.0000 O   0  0  0  0  0  0  0  0  0  0  0  0
   -2.4333    3.1083    0.0000 C   0  0  0  0  0  0  0  0  0  0  0  0
    5.2500   -3.0000    0.0000 C   0  0  0  0  0  0  0  0  0  0  0  0
   -2.4625   -0.1292    0.0000 C   0  0  0  0  0  0  0  0  0  0  0  0
   -5.2500    1.5125    0.0000 C   0  0  0  0  0  0  0  0  0  0  0  0
   -4.3208   -0.1167    0.0000 C   0  0  0  0  0  0  0  0  0  0  0  0
  2  1  1  0  0  0  0
  3  1  2  0  0  0  0
  4  1  1  0  0  0  0
  5  2  1  0  0  0  0
  6  3  1  0  0  0  0
  7  4  1  0  0  0  0
  8 10  2  0  0  0  0
  9  4  1  0  0  0  0
 10  7  1  0  0  0  0
 11  5  1  0  0  0  0
 12  7  2  0  0  0  0
 13 14  2  0  0  0  0
 14 12  1  0  0  0  0
  5  6  2  0  0  0  0
 13  8  1  0  0  0  0
M  END
>  <ID> (4001443)
4001443

>  <RB> (4001443)
2

>  <clogP> (4001443)
6.300000000000000e-001

>  <Supplier> (4001443)
ChemBridge

>  <tPSA> (4001443)
4.625999999999998e+001

>  <Hacc> (4001443)
3

>  <Hdon> (4001443)
1

>  <Name> (4001443)
(5-methyl-2-furyl)(pyridin-3-yl)methanol

>  <logSw> (4001443)
-5.100000000000000e-001

>  <Library> (4001443)
ExpressPick

>  <stereochemistry> (4001443)
unknown

$$$$
4001454


 13 14  0  0  0  0  0  0  0  0999 V2000
    2.2500   -0.1875    0.0000 C   0  0  0  0  0  0  0  0  0  0  0  0
    1.1042    1.6458    0.0000 C   0  0  3  0  0  0  0  0  0  0  0  0
    1.4500   -2.2042    0.0000 N   0  0  3  0  0  0  0  0  0  0  0  0
    4.4042   -0.3792    0.0000 N   0  0  0  0  0  0  0  0  0  0  0  0
   -1.5833    1.6458    0.0000 C   0  0  0  0  0  0  0  0  0  0  0  0
   -2.8458   -0.0875    0.0000 S   0  0  0  0  0  0  0  0  0  0  0  0
    4.9000   -2.4375    0.0000 C   0  0  0  0  0  0  0  0  0  0  0  0
    3.1000   -3.5667    0.0000 C   0  0  0  0  0  0  0  0  0  0  0  0
   -2.8125    3.3958    0.0000 C   0  0  0  0  0  0  0  0  0  0  0  0
   -4.9083    0.6125    0.0000 C   0  0  0  0  0  0  0  0  0  0  0  0
   -4.8625    2.7708    0.0000 C   0  0  0  0  0  0  0  0  0  0  0  0
    2.1667    3.5708    0.0000 O   0  0  0  0  0  0  0  0  0  0  0  0
   -0.6833   -2.7375    0.0000 C   0  0  0  0  0  0  0  0  0  0  0  0
  2  1  1  0  0  0  0
  3  1  1  0  0  0  0
  4  1  2  0  0  0  0
  5  2  1  0  0  0  0
  6  5  1  0  0  0  0
  7  4  1  0  0  0  0
  8  3  1  0  0  0  0
  9  5  2  0  0  0  0
 10  6  1  0  0  0  0
 11  9  1  0  0  0  0
 12  2  1  0  0  0  0
 13  3  1  0  0  0  0
  7  8  2  0  0  0  0
 10 11  2  0  0  0  0
M  END
>  <ID> (4001454)
4001454

>  <RB> (4001454)
2

>  <clogP> (4001454)
-6.000000000000000e-002

>  <Supplier> (4001454)
ChemBridge

>  <tPSA> (4001454)
3.805000000000000e+001

>  <Hacc> (4001454)
2

>  <Hdon> (4001454)
1

>  <Name> (4001454)
(1-methyl-1H-imidazol-2-yl)(2-thienyl)methanol

>  <logSw> (4001454)
-1.594000000000000e+000

>  <Scheme> (4001454)
413

>  <Library> (4001454)
ExpressPick

>  <stereochemistry> (4001454)
unknown

$$$$
4001464


 15 16  0  0  0  0  0  0  0  0999 V2000
    3.1292   -0.1500    0.0000 C   0  0  0  0  0  0  0  0  0  0  0  0
    2.4792   -1.7542    0.0000 N   0  0  3  0  0  0  0  0  0  0  0  0
    4.8500   -0.3000    0.0000 N   0  0  0  0  0  0  0  0  0  0  0  0
    2.2042    1.3125    0.0000 C   0  0  3  0  0  0  0  0  0  0  0  0
    5.2500   -1.9500    0.0000 C   0  0  0  0  0  0  0  0  0  0  0  0
    3.8000   -2.8500    0.0000 C   0  0  0  0  0  0  0  0  0  0  0  0
   -0.1125    1.3125    0.0000 C   0  0  0  0  0  0  0  0  0  0  0  0
   -0.9458   -0.2000    0.0000 C   0  0  0  0  0  0  0  0  0  0  0  0
   -0.9458    2.7958    0.0000 C   0  0  0  0  0  0  0  0  0  0  0  0
    3.0542    2.8500    0.0000 O   0  0  0  0  0  0  0  0  0  0  0  0
   -3.5125    1.3125    0.0000 C   0  0  0  0  0  0  0  0  0  0  0  0
   -2.6833    2.7958    0.0000 C   0  0  0  0  0  0  0  0  0  0  0  0
   -2.6833   -0.2000    0.0000 C   0  0  0  0  0  0  0  0  0  0  0  0
   -5.2500    1.3125    0.0000 F   0  0  0  0  0  0  0  0  0  0  0  0
    0.7792   -2.1875    0.0000 C   0  0  0  0  0  0  0  0  0  0  0  0
  2  1  1  0  0  0  0
  3  1  2  0  0  0  0
  4  1  1  0  0  0  0
  5  3  1  0  0  0  0
  6  2  1  0  0  0  0
  7  4  1  0  0  0  0
  8  7  1  0  0  0  0
  9  7  2  0  0  0  0
 10  4  1  0  0  0  0
 11 12  2  0  0  0  0
 12  9  1  0  0  0  0
 13  8  2  0  0  0  0
 14 11  1  0  0  0  0
 15  2  1  0  0  0  0
  6  5  2  0  0  0  0
 11 13  1  0  0  0  0
M  END
>  <ID> (4001464)
4001464

>  <RB> (4001464)
2

>  <clogP> (4001464)
4.400000000000001e-001

>  <Supplier> (4001464)
ChemBridge

>  <tPSA> (4001464)
3.805000000000000e+001

>  <Hacc> (4001464)
2

>  <Hdon> (4001464)
1

>  <Name> (4001464)
(4-fluorophenyl)(1-methyl-1H-imidazol-2-yl)methanol

>  <logSw> (4001464)
-2.006000000000000e+000

>  <Scheme> (4001464)
413

>  <Library> (4001464)
ExpressPick

>  <stereochemistry> (4001464)
unknown

$$$$
4001608


 14 15  0  0  0  0  0  0  0  0999 V2000
    1.8625   -1.7000    0.0000 N   0  0  0  0  0  0  0  0  0  0  0  0
    2.5792   -2.9500    0.0000 N   0  0  0  0  0  0  0  0  0  0  0  0
    2.5792   -2.1167    0.0000 C   0  0  0  0  0  0  0  0  0  0  0  0
    1.1500   -2.1167    0.0000 C   0  0  0  0  0  0  0  0  0  0  0  0
    1.1417   -2.9417    0.0000 C   0  0  0  0  0  0  0  0  0  0  0  0
    3.2917   -1.7042    0.0000 C   0  0  0  0  0  0  0  0  0  0  0  0
    4.0042   -2.1167    0.0000 S   0  0  0  0  0  0  0  0  0  0  0  0
    6.1417   -1.6917    0.0000 O   0  0  0  0  0  0  0  0  0  0  0  0
    0.4292   -1.7042    0.0000 C   0  0  0  0  0  0  0  0  0  0  0  0
    0.4292   -3.3625    0.0000 C   0  0  0  0  0  0  0  0  0  0  0  0
    4.7167   -1.7000    0.0000 C   0  0  0  0  0  0  0  0  0  0  0  0
    5.4292   -2.1125    0.0000 C   0  0  0  0  0  0  0  0  0  0  0  0
   -0.2833   -2.1250    0.0000 C   0  0  0  0  0  0  0  0  0  0  0  0
   -0.2833   -2.9500    0.0000 C   0  0  0  0  0  0  0  0  0  0  0  0
  2  3  1  0  0  0  0
  3  1  2  0  0  0  0
  4  1  1  0  0  0  0
  5  4  1  0  0  0  0
  6  3  1  0  0  0  0
  7  6  1  0  0  0  0
  8 12  1  0  0  0  0
  9  4  2  0  0  0  0
 10  5  2  0  0  0  0
 11  7  1  0  0  0  0
 12 11  1  0  0  0  0
 13  9  1  0  0  0  0
 14 13  2  0  0  0  0
  2  5  1  0  0  0  0
 10 14  1  0  0  0  0
M  END
>  <ID> (4001608)
4001608

>  <RB> (4001608)
4

>  <clogP> (4001608)
1.332000000000000e+000

>  <Supplier> (4001608)
ChemBridge

>  <tPSA> (4001608)
4.891000000000000e+001

>  <Hacc> (4001608)
2

>  <Hdon> (4001608)
2

>  <Name> (4001608)
2-[(1H-benzimidazol-2-ylmethyl)thio]ethanol hydrochloride

>  <logSw> (4001608)
-9.770000000000000e-001

>  <Library> (4001608)
ExpressPick

$$$$
4001635


 12 13  0  0  0  0  0  0  0  0999 V2000
    4.3667   -2.8542    0.0000 C   0  0  0  0  0  0  0  0  0  0  0  0
    4.3750   -4.1917    0.0000 N   0  0  0  0  0  0  0  0  0  0  0  0
    3.8792   -3.5250    0.0000 N   0  0  0  0  0  0  0  0  0  0  0  0
    5.1500   -3.1042    0.0000 C   0  0  0  0  0  0  0  0  0  0  0  0
    4.3667   -2.0250    0.0000 C   0  0  0  0  0  0  0  0  0  0  0  0
    5.1500   -3.9292    0.0000 C   0  0  0  0  0  0  0  0  0  0  0  0
    5.0792   -1.6125    0.0000 C   0  0  0  0  0  0  0  0  0  0  0  0
    3.6542   -1.6125    0.0000 C   0  0  0  0  0  0  0  0  0  0  0  0
    4.3667   -0.3667    0.0000 C   0  0  0  0  0  0  0  0  0  0  0  0
    4.3667    0.4583    0.0000 N   0  0  0  0  0  0  0  0  0  0  0  0
    5.0792   -0.7792    0.0000 C   0  0  0  0  0  0  0  0  0  0  0  0
    3.6542   -0.7875    0.0000 C   0  0  0  0  0  0  0  0  0  0  0  0
  2  3  1  0  0  0  0
  3  1  1  0  0  0  0
  4  1  2  0  0  0  0
  5  1  1  0  0  0  0
  6  4  1  0  0  0  0
  7  5  2  0  0  0  0
  8  5  1  0  0  0  0
  9 12  1  0  0  0  0
 10  9  1  0  0  0  0
 11  7  1  0  0  0  0
 12  8  2  0  0  0  0
  2  6  2  0  0  0  0
 11  9  2  0  0  0  0
M  END
>  <ID> (4001635)
4001635

>  <RB> (4001635)
1

>  <clogP> (4001635)
1.282000000000000e+000

>  <Supplier> (4001635)
ChemBridge

>  <tPSA> (4001635)
5.470000000000000e+001

>  <Hacc> (4001635)
1

>  <Hdon> (4001635)
2

>  <Name> (4001635)
4-(1H-pyrazol-5-yl)aniline

>  <logSw> (4001635)
-6.200000000000000e-001

>  <Library> (4001635)
ExpressPick

$$$$
4001636


 12 13  0  0  0  0  0  0  0  0999 V2000
    5.6375   -3.2917    0.0000 C   0  0  0  0  0  0  0  0  0  0  0  0
    5.6417   -4.6292    0.0000 N   0  0  0  0  0  0  0  0  0  0  0  0
    5.1542   -3.9625    0.0000 N   0  0  0  0  0  0  0  0  0  0  0  0
    5.6375   -2.4625    0.0000 C   0  0  0  0  0  0  0  0  0  0  0  0
    6.4167   -3.5417    0.0000 C   0  0  0  0  0  0  0  0  0  0  0  0
    6.3542   -2.0500    0.0000 C   0  0  0  0  0  0  0  0  0  0  0  0
    6.4167   -4.3667    0.0000 C   0  0  0  0  0  0  0  0  0  0  0  0
    6.3542   -1.2167    0.0000 C   0  0  0  0  0  0  0  0  0  0  0  0
    7.0667   -0.8042    0.0000 N   0  0  0  0  0  0  0  0  0  0  0  0
    4.9250   -2.0500    0.0000 C   0  0  0  0  0  0  0  0  0  0  0  0
    4.9250   -1.2250    0.0000 C   0  0  0  0  0  0  0  0  0  0  0  0
    5.6375   -0.8042    0.0000 C   0  0  0  0  0  0  0  0  0  0  0  0
  2  3  1  0  0  0  0
  3  1  1  0  0  0  0
  4  1  1  0  0  0  0
  5  1  2  0  0  0  0
  6  4  2  0  0  0  0
  7  5  1  0  0  0  0
  8  6  1  0  0  0  0
  9  8  1  0  0  0  0
 10  4  1  0  0  0  0
 11 10  2  0  0  0  0
 12 11  1  0  0  0  0
  2  7  2  0  0  0  0
  8 12  2  0  0  0  0
M  END
>  <ID> (4001636)
4001636

>  <RB> (4001636)
1

>  <clogP> (4001636)
1.282000000000000e+000

>  <Supplier> (4001636)
ChemBridge

>  <tPSA> (4001636)
5.470000000000000e+001

>  <Hacc> (4001636)
1

>  <Hdon> (4001636)
2

>  <Name> (4001636)
3-(1H-pyrazol-5-yl)aniline

>  <logSw> (4001636)
3.670000000000000e-001

>  <Library> (4001636)
ExpressPick

$$$$
4001640


 15 17  0  0  0  0  0  0  0  0999 V2000
    0.6917   -0.1667    0.0000 N   0  0  0  0  0  0  0  0  0  0  0  0
    1.1667   -0.8417    0.0000 C   0  0  0  0  0  0  0  0  0  0  0  0
    0.6667   -1.5042    0.0000 N   0  0  0  0  0  0  0  0  0  0  0  0
   -0.0958   -0.4042    0.0000 C   0  0  0  0  0  0  0  0  0  0  0  0
   -0.1083   -1.2292    0.0000 C   0  0  0  0  0  0  0  0  0  0  0  0
   -0.8083    0.0083    0.0000 C   0  0  0  0  0  0  0  0  0  0  0  0
    1.9917   -0.8542    0.0000 C   0  0  3  0  0  0  0  0  0  0  0  0
    2.4042   -1.5667    0.0000 N   0  0  0  0  0  0  0  0  0  0  0  0
   -0.8208   -1.6417    0.0000 C   0  0  0  0  0  0  0  0  0  0  0  0
   -1.5333   -0.4000    0.0000 C   0  0  0  0  0  0  0  0  0  0  0  0
   -1.5333   -1.2292    0.0000 C   0  0  0  0  0  0  0  0  0  0  0  0
   -2.2375    0.0208    0.0000 F   0  0  0  0  0  0  0  0  0  0  0  0
    3.2292   -1.5667    0.0000 C   0  0  0  0  0  0  0  0  0  0  0  0
    2.4042   -0.1417    0.0000 C   0  0  0  0  0  0  0  0  0  0  0  0
    3.2292   -0.1417    0.0000 C   0  0  0  0  0  0  0  0  0  0  0  0
  2  1  2  0  0  0  0
  3  2  1  0  0  0  0
  4  1  1  0  0  0  0
  5  4  2  0  0  0  0
  6  4  1  0  0  0  0
  7  2  1  0  0  0  0
  8  7  1  0  0  0  0
  9  5  1  0  0  0  0
 10  6  2  0  0  0  0
 11 10  1  0  0  0  0
 12 10  1  0  0  0  0
 13  8  1  0  0  0  0
 14  7  1  0  0  0  0
 15 14  1  0  0  0  0
  3  5  1  0  0  0  0
 11  9  2  0  0  0  0
 15 13  1  0  0  0  0
M  END
>  <ID> (4001640)
4001640

>  <RB> (4001640)
1

>  <clogP> (4001640)
1.580000000000000e+000

>  <Supplier> (4001640)
ChemBridge

>  <tPSA> (4001640)
4.071000000000002e+001

>  <Hacc> (4001640)
2

>  <Hdon> (4001640)
2

>  <Name> (4001640)
5-fluoro-2-(2-pyrrolidinyl)-1H-benzimidazole dihydrochloride

>  <logSw> (4001640)
-9.010000000000000e-001

>  <Library> (4001640)
ExpressPick

$$$$
